13
E=  -1352.93892416;c=0;m=5
Au      8.246097514125729     10.353198718204180      8.820435853136770
Au      6.163145285728270      9.593674270063641     10.410037078085310
Au      7.708311888582760      6.489336724252740     10.777404819172499
Au      9.603470267569040      7.683228411266390      9.339959324098841
Au      5.011847832422890      6.973701521883200     10.178403261654410
Au     10.395177036843830      9.050658544779980      7.150819509655250
Au      6.523293525324070      5.581483817826310      8.042069159217011
Au      8.456948099651029      6.937768316717220      6.671887805191640
Au      8.880772584933339     11.286515589357981      6.236603477146300
Au      6.757973944049080      9.438212698405261      6.398388348644840
Au      9.034088383364800      8.937506730923641      4.730925597668950
Au      4.760715655886750      8.461430419137130      7.855215865233070
Cr      7.100730061518380      7.937942287182340      8.746808181095201
