13
E=  -1362.87381651;c=0;m=6
Au      9.411800367752861      7.011532882021650      5.823534433714090
Au      3.998376674032980      6.545051370403450      8.051951889483551
Au      5.459858999123220      8.971542069090940      7.210863904615930
Au      6.875594122313980      7.420427994033480      5.221246364496580
Au      4.129161696949520      7.240755323097020      5.496456437194410
Au      4.183549180783430      5.983397507259140     10.644785929468160
Au      6.545476978168350      5.925670870259430      9.246132433338310
Au      9.090720072390800      5.779986507279590      8.620955808183680
Au     11.467735179552299      6.629940147566310      7.565180877838120
Au      5.106283875257970      8.525188017993621      9.933727206054590
Au      7.460055406089010      9.670761969225060      9.058756785540160
Au      9.879901910070860      8.772793888241560      8.383061260169050
Mn      7.697907737514630      7.607618353528760      7.610165589903370
