13
Coordinates from ORCA-job pbe E -2780.692361222083
  Au      9.411800      7.011533      5.823534
  Au      3.998377      6.545051      8.051952
  Au      5.459859      8.971542      7.210864
  Au      6.875594      7.420428      5.221246
  Au      4.129162      7.240755      5.496456
  Au      4.183549      5.983398     10.644786
  Au      6.545477      5.925671      9.246132
  Au      9.090720      5.779987      8.620956
  Au     11.467735      6.629940      7.565181
  Au      5.106284      8.525188      9.933727
  Au      7.460055      9.670762      9.058757
  Au      9.879902      8.772794      8.383061
  Mn      7.697908      7.607618      7.610166
13
Coordinates from ORCA-job pbe E -2780.695814753044
  Au      9.440166      7.007233      5.806142
  Au      3.997721      6.571718      8.051492
  Au      5.437792      8.955346      7.243155
  Au      6.860638      7.400210      5.199512
  Au      4.119032      7.256766      5.500616
  Au      4.146545      6.000767     10.637537
  Au      6.539896      5.903296      9.271283
  Au      9.136156      5.742874      8.629247
  Au     11.485376      6.652626      7.534005
  Au      5.099844      8.528160      9.900854
  Au      7.458722      9.680545      9.067347
  Au      9.882296      8.793545      8.404753
  Mn      7.702240      7.591581      7.620875
13
Coordinates from ORCA-job pbe E -2780.698071534939
  Au      9.431222      7.005629      5.775704
  Au      4.020012      6.586973      8.052276
  Au      5.413035      8.951730      7.259815
  Au      6.873394      7.379185      5.165629
  Au      4.119620      7.282729      5.467946
  Au      4.148354      5.993452     10.646631
  Au      6.574617      5.877089      9.299116
  Au      9.129417      5.703167      8.654885
  Au     11.444664      6.660462      7.530921
  Au      5.111987      8.524110      9.890243
  Au      7.458121      9.721315      9.066050
  Au      9.883457      8.813477      8.427635
  Mn      7.698523      7.585349      7.629969
13
Coordinates from ORCA-job pbe E -2780.699164968076
  Au      9.407938      6.994192      5.750383
  Au      4.062150      6.609971      8.044157
  Au      5.405617      8.947285      7.257216
  Au      6.866721      7.359495      5.148781
  Au      4.145628      7.306740      5.473190
  Au      4.165147      5.997706     10.621392
  Au      6.585188      5.850576      9.329944
  Au      9.126170      5.669433      8.669114
  Au     11.388207      6.687189      7.540569
  Au      5.140709      8.508036      9.889626
  Au      7.458998      9.749471      9.057270
  Au      9.864860      8.830374      8.447598
  Mn      7.689088      7.574199      7.637579
13
Coordinates from ORCA-job pbe E -2780.699826789220
  Au      9.397307      6.982940      5.726849
  Au      4.078322      6.624943      8.032365
  Au      5.415899      8.969173      7.242552
  Au      6.861850      7.338271      5.129370
  Au      4.139062      7.325156      5.444678
  Au      4.156889      5.986420     10.629107
  Au      6.593905      5.809453      9.366445
  Au      9.128304      5.636777      8.678307
  Au     11.359757      6.723870      7.549930
  Au      5.182983      8.504337      9.912163
  Au      7.453653      9.775625      9.043908
  Au      9.853671      8.846250      8.467771
  Mn      7.684821      7.561452      7.643372
13
Coordinates from ORCA-job pbe E -2780.700270315329
  Au      9.382745      6.973468      5.721810
  Au      4.106777      6.638778      8.024240
  Au      5.426476      8.988163      7.245865
  Au      6.847564      7.322844      5.138508
  Au      4.133163      7.338512      5.443239
  Au      4.162312      5.980219     10.597773
  Au      6.605435      5.791946      9.393500
  Au      9.117041      5.627968      8.691770
  Au     11.351972      6.730429      7.546882
  Au      5.208389      8.485731      9.906200
  Au      7.430890      9.794222      9.027588
  Au      9.852794      8.856569      8.474734
  Mn      7.680864      7.555817      7.654709
13
Coordinates from ORCA-job pbe E -2780.700890392024
  Au      9.366924      6.951017      5.731126
  Au      4.130143      6.659367      8.003015
  Au      5.437975      9.011978      7.246387
  Au      6.832070      7.306774      5.166994
  Au      4.121746      7.361252      5.446701
  Au      4.145006      5.958994     10.565774
  Au      6.620840      5.770359      9.432083
  Au      9.128080      5.634659      8.696263
  Au     11.337319      6.737803      7.537666
  Au      5.224078      8.452942      9.898530
  Au      7.433436      9.818730      8.997098
  Au      9.845572      8.872843      8.472750
  Mn      7.683236      7.547949      7.672433
13
Coordinates from ORCA-job pbe E -2780.701266207375
  Au      9.360317      6.940506      5.736008
  Au      4.140673      6.658633      7.999764
  Au      5.436367      9.022184      7.235943
  Au      6.816501      7.303077      5.178086
  Au      4.103538      7.382116      5.436598
  Au      4.144023      5.956105     10.563135
  Au      6.624175      5.761858      9.441061
  Au      9.131282      5.635918      8.693789
  Au     11.351776      6.745714      7.556642
  Au      5.240941      8.437382      9.894373
  Au      7.432625      9.821885      8.987583
  Au      9.842823      8.876849      8.466840
  Mn      7.681380      7.542440      7.676997
13
Coordinates from ORCA-job pbe E -2780.701904068600
  Au      9.347475      6.926501      5.767595
  Au      4.167181      6.650497      7.976872
  Au      5.432004      9.041066      7.213357
  Au      6.794168      7.298377      5.218302
  Au      4.074265      7.416737      5.422282
  Au      4.132699      5.950722     10.560561
  Au      6.634250      5.745622      9.456897
  Au      9.143465      5.650437      8.693442
  Au     11.362045      6.752273      7.553223
  Au      5.270539      8.416377      9.874207
  Au      7.427274      9.828670      8.975595
  Au      9.842292      8.875036      8.456890
  Mn      7.678766      7.532352      7.697597
13
Coordinates from ORCA-job pbe E -2780.702384724586
  Au      9.321494      6.916579      5.790653
  Au      4.200521      6.638104      7.956816
  Au      5.423639      9.061060      7.201854
  Au      6.779831      7.295056      5.252312
  Au      4.046780      7.439672      5.410394
  Au      4.128817      5.949160     10.539795
  Au      6.641293      5.729116      9.474485
  Au      9.155006      5.656865      8.702007
  Au     11.369441      6.751631      7.543981
  Au      5.293296      8.395575      9.854983
  Au      7.438882      9.849024      8.959217
  Au      9.835273      8.878068      8.457183
  Mn      7.672150      7.524757      7.723140
13
Coordinates from ORCA-job pbe E -2780.702905342267
  Au      9.296171      6.911013      5.811731
  Au      4.241545      6.624067      7.927475
  Au      5.413794      9.082669      7.196230
  Au      6.749069      7.290700      5.281967
  Au      4.029504      7.459823      5.407424
  Au      4.129606      5.943518     10.515909
  Au      6.655757      5.711629      9.486455
  Au      9.163660      5.659664      8.715685
  Au     11.366881      6.747629      7.546792
  Au      5.316411      8.381440      9.834362
  Au      7.447962      9.876185      8.941607
  Au      9.835176      8.876070      8.451089
  Mn      7.660886      7.520259      7.750094
13
Coordinates from ORCA-job pbe E -2780.703473337695
  Au      9.272108      6.908687      5.835464
  Au      4.279990      6.606510      7.901976
  Au      5.403259      9.104414      7.196280
  Au      6.726575      7.282617      5.303155
  Au      4.007908      7.478101      5.403953
  Au      4.136972      5.944008     10.488459
  Au      6.664321      5.692036      9.488921
  Au      9.179166      5.660612      8.737781
  Au     11.360332      6.746782      7.542813
  Au      5.337568      8.373409      9.815370
  Au      7.455161      9.902542      8.924796
  Au      9.837867      8.867020      8.447098
  Mn      7.645195      7.517929      7.780752
13
Coordinates from ORCA-job pbe E -2780.704015877807
  Au      9.247135      6.905427      5.857259
  Au      4.316030      6.590746      7.873434
  Au      5.394409      9.124441      7.197740
  Au      6.705783      7.270581      5.321903
  Au      3.994364      7.498279      5.404776
  Au      4.137172      5.945078     10.464358
  Au      6.673268      5.669673      9.488043
  Au      9.192816      5.660818      8.764681
  Au     11.367732      6.746452      7.530603
  Au      5.356137      8.369785      9.800806
  Au      7.462591      9.922094      8.909328
  Au      9.834165      8.863473      8.441119
  Mn      7.624821      7.517820      7.812767
13
Coordinates from ORCA-job pbe E -2780.704553027190
  Au      9.228531      6.902678      5.883140
  Au      4.354125      6.574746      7.851977
  Au      5.387761      9.146824      7.195783
  Au      6.684840      7.257502      5.340712
  Au      3.976405      7.523629      5.399562
  Au      4.141044      5.946357     10.441504
  Au      6.682962      5.645104      9.489272
  Au      9.207348      5.669192      8.782885
  Au     11.367429      6.742310      7.529669
  Au      5.375982      8.361495      9.789827
  Au      7.467750      9.936452      8.892992
  Au      9.829002      8.859382      8.427694
  Mn      7.603243      7.518996      7.841802
13
Coordinates from ORCA-job pbe E -2780.705121020711
  Au      9.209511      6.898541      5.907702
  Au      4.390468      6.563571      7.829045
  Au      5.382323      9.167880      7.193239
  Au      6.670555      7.239268      5.362319
  Au      3.959863      7.551747      5.399526
  Au      4.138005      5.947533     10.420295
  Au      6.689942      5.616640      9.494054
  Au      9.221333      5.682854      8.794121
  Au     11.376749      6.744784      7.530239
  Au      5.389512      8.354311      9.782438
  Au      7.471832      9.945122      8.878598
  Au      9.826909      8.851919      8.406392
  Mn      7.579418      7.520497      7.868853
13
Coordinates from ORCA-job pbe E -2780.705722097992
  Au      9.198396      6.893729      5.935670
  Au      4.431947      6.553382      7.808363
  Au      5.376773      9.188976      7.190119
  Au      6.655191      7.221024      5.387177
  Au      3.949975      7.577961      5.396438
  Au      4.136071      5.947065     10.400256
  Au      6.696455      5.588597      9.504021
  Au      9.224287      5.701078      8.797161
  Au     11.388911      6.744087      7.526812
  Au      5.397467      8.348689      9.779059
  Au      7.478073      9.950317      8.868518
  Au      9.820914      8.845722      8.380515
  Mn      7.551963      7.524041      7.892709
13
Coordinates from ORCA-job pbe E -2780.706323068737
  Au      9.185072      6.887638      5.959264
  Au      4.479510      6.546929      7.785621
  Au      5.368834      9.209509      7.190685
  Au      6.642187      7.201404      5.414139
  Au      3.940429      7.600342      5.397400
  Au      4.136304      5.942873     10.377746
  Au      6.704361      5.562924      9.515564
  Au      9.223189      5.719146      8.794292
  Au     11.398609      6.739303      7.528636
  Au      5.404326      8.346323      9.773685
  Au      7.483767      9.960523      8.859981
  Au      9.814878      8.840341      8.356729
  Mn      7.524956      7.527412      7.913077
13
Coordinates from ORCA-job pbe E -2780.706908143198
  Au      9.172798      6.877881      5.980251
  Au      4.532020      6.541503      7.763206
  Au      5.358611      9.229626      7.193989
  Au      6.627554      7.178388      5.440824
  Au      3.933771      7.619855      5.398173
  Au      4.136252      5.938800     10.351936
  Au      6.711412      5.541122      9.526665
  Au      9.219649      5.731760      8.791469
  Au     11.406494      6.739535      7.525732
  Au      5.407388      8.347028      9.770619
  Au      7.491604      9.975579      8.855337
  Au      9.809939      8.834115      8.337205
  Mn      7.498930      7.529476      7.931411
13
Coordinates from ORCA-job pbe E -2780.707452925738
  Au      9.158728      6.866464      5.998017
  Au      4.587899      6.536208      7.739809
  Au      5.347511      9.250031      7.199859
  Au      6.610969      7.152121      5.465327
  Au      3.924529      7.638351      5.401160
  Au      4.137756      5.936091     10.323420
  Au      6.719724      5.523001      9.532410
  Au      9.220785      5.739419      8.791127
  Au     11.409594      6.739165      7.524903
  Au      5.411426      8.351094      9.766734
  Au      7.498612      9.991585      8.851824
  Au      9.803014      8.830531      8.323525
  Mn      7.475877      7.530607      7.948704
13
Coordinates from ORCA-job pbe E -2780.707932598210
  Au      9.146077      6.852193      6.011131
  Au      4.645674      6.530744      7.718202
  Au      5.335733      9.269676      7.207079
  Au      6.594850      7.119711      5.486295
  Au      3.916457      7.656664      5.405124
  Au      4.136702      5.936749     10.293597
  Au      6.727633      5.508936      9.535320
  Au      9.224548      5.740463      8.790938
  Au     11.411256      6.744436      7.520626
  Au      5.408851      8.360270      9.768395
  Au      7.504352     10.006273      8.852630
  Au      9.797543      8.827626      8.314622
  Mn      7.456747      7.530925      7.962860
13
Coordinates from ORCA-job pbe E -2780.708286495967
  Au      9.131972      6.839249      6.024369
  Au      4.701937      6.522618      7.697675
  Au      5.325574      9.289723      7.213605
  Au      6.577563      7.087043      5.501717
  Au      3.904965      7.677815      5.412818
  Au      4.135028      5.944231     10.264380
  Au      6.735925      5.493976      9.532200
  Au      9.235517      5.738352      8.796542
  Au     11.410463      6.753533      7.517113
  Au      5.408801      8.370040      9.768120
  Au      7.506598     10.013573      8.849727
  Au      9.789777      8.824746      8.310345
  Mn      7.442303      7.529769      7.978208
13
Coordinates from ORCA-job pbe E -2780.708475634352
  Au      9.132385      6.824924      6.019538
  Au      4.748174      6.513509      7.691475
  Au      5.310863      9.296698      7.222949
  Au      6.578166      7.052831      5.499409
  Au      3.906066      7.687525      5.422550
  Au      4.129689      5.956008     10.247059
  Au      6.740480      5.492952      9.528077
  Au      9.238631      5.725379      8.782277
  Au     11.410368      6.759456      7.512084
  Au      5.381076      8.399929      9.789214
  Au      7.504164     10.015137      8.864359
  Au      9.788484      8.827835      8.314228
  Mn      7.437877      7.532483      7.973599
13
Coordinates from ORCA-job pbe E -2780.708619903764
  Au      9.115771      6.820345      6.030350
  Au      4.782991      6.498818      7.678218
  Au      5.307442      9.313894      7.222034
  Au      6.563244      7.039430      5.494027
  Au      3.892496      7.711974      5.435442
  Au      4.128004      5.980590     10.233175
  Au      6.746620      5.471142      9.520349
  Au      9.259002      5.714724      8.804443
  Au     11.401900      6.777536      7.508223
  Au      5.398015      8.397467      9.779496
  Au      7.490898     10.008578      8.843295
  Au      9.779049      8.824943      8.326590
  Mn      7.440989      7.525225      7.991178
13
Coordinates from ORCA-job pbe E -2780.708781425119
  Au      9.123826      6.820336      6.022052
  Au      4.773648      6.492328      7.686528
  Au      5.305348      9.303335      7.222844
  Au      6.573600      7.051308      5.481421
  Au      3.900051      7.705057      5.437707
  Au      4.129204      5.987706     10.248993
  Au      6.742747      5.479781      9.520286
  Au      9.251925      5.709851      8.789635
  Au     11.402560      6.775142      7.511007
  Au      5.385586      8.407258      9.784399
  Au      7.484342      9.999473      8.848927
  Au      9.781031      8.827042      8.335053
  Mn      7.452554      7.526051      7.977965
13
Coordinates from ORCA-job pbe E -2780.708916173181
  Au      9.123206      6.808141      6.014500
  Au      4.791449      6.484587      7.683072
  Au      5.301815      9.302161      7.224828
  Au      6.574417      7.057897      5.480367
  Au      3.907906      7.708503      5.443079
  Au      4.133368      5.993579     10.254334
  Au      6.742844      5.485225      9.531221
  Au      9.241886      5.703931      8.774245
  Au     11.398735      6.771155      7.509926
  Au      5.371703      8.411448      9.786559
  Au      7.469014      9.998644      8.848679
  Au      9.781653      8.833728      8.347709
  Mn      7.468427      7.525668      7.968299
13
Coordinates from ORCA-job pbe E -2780.708974004174
  Au      9.123668      6.798465      6.011212
  Au      4.802773      6.475213      7.678024
  Au      5.296851      9.303346      7.225081
  Au      6.573571      7.063754      5.478357
  Au      3.899389      7.711698      5.453401
  Au      4.133617      6.001397     10.251958
  Au      6.743587      5.485680      9.534543
  Au      9.238610      5.696248      8.771285
  Au     11.393873      6.777583      7.513126
  Au      5.368580      8.412799      9.781708
  Au      7.467350      9.997250      8.845061
  Au      9.782350      8.836909      8.357231
  Mn      7.482204      7.524325      7.965832
13
Coordinates from ORCA-job pbe E -2780.709012279188
  Au      9.118153      6.788765      6.006951
  Au      4.813768      6.466029      7.671198
  Au      5.294637      9.308346      7.226071
  Au      6.569286      7.071378      5.480516
  Au      3.894864      7.715159      5.458950
  Au      4.130124      6.000239     10.244089
  Au      6.744004      5.485795      9.542017
  Au      9.240769      5.694030      8.778907
  Au     11.387112      6.774981      7.511325
  Au      5.369574      8.407009      9.776984
  Au      7.465864     10.002268      8.840369
  Au      9.785314      8.843874      8.359794
  Mn      7.492954      7.526795      7.969648
13
Coordinates from ORCA-job pbe E -2780.709036868954
  Au      9.117129      6.783342      6.006340
  Au      4.820297      6.458870      7.666679
  Au      5.293124      9.309659      7.226249
  Au      6.566491      7.075190      5.485571
  Au      3.889321      7.718556      5.463871
  Au      4.125902      5.996921     10.237513
  Au      6.741600      5.487691      9.543709
  Au      9.240776      5.695471      8.785416
  Au     11.385206      6.775672      7.511476
  Au      5.372124      8.403826      9.772448
  Au      7.469955     10.003234      8.839748
  Au      9.787917      8.846717      8.354533
  Mn      7.496580      7.529517      7.973267
13
Coordinates from ORCA-job pbe E -2780.709055098143
  Au      9.118040      6.781568      6.003853
  Au      4.817666      6.454907      7.664544
  Au      5.295759      9.308305      7.225517
  Au      6.566697      7.078336      5.488601
  Au      3.886522      7.722574      5.465849
  Au      4.120505      5.991192     10.233831
  Au      6.739171      5.491599      9.547661
  Au      9.240054      5.697333      8.792979
  Au     11.382528      6.774254      7.511545
  Au      5.378585      8.395988      9.770606
  Au      7.471365     10.004784      8.839274
  Au      9.790700      8.851772      8.346643
  Mn      7.498830      7.532056      7.975918
13
Coordinates from ORCA-job pbe E -2780.709070865154
  Au      9.119515      6.782155      6.001991
  Au      4.817575      6.449841      7.663345
  Au      5.298554      9.304427      7.227671
  Au      6.567939      7.078610      5.491604
  Au      3.887511      7.724087      5.467010
  Au      4.113478      5.989174     10.230855
  Au      6.735880      5.498715      9.549841
  Au      9.238077      5.699377      8.794275
  Au     11.381541      6.772352      7.511968
  Au      5.382305      8.391619      9.771793
  Au      7.472898     10.003678      8.843280
  Au      9.792082      8.856176      8.336885
  Mn      7.499068      7.534457      7.976301
13
Coordinates from ORCA-job pbe E -2780.709085328614
  Au      9.122221      6.783688      5.999789
  Au      4.816021      6.446028      7.662092
  Au      5.303023      9.299205      7.230846
  Au      6.569980      7.075707      5.491891
  Au      3.889664      7.726002      5.467444
  Au      4.106133      5.989158     10.228727
  Au      6.733340      5.507396      9.553971
  Au      9.234262      5.698781      8.792199
  Au     11.380298      6.771966      7.513265
  Au      5.386668      8.386082      9.776346
  Au      7.472578     10.003286      8.847832
  Au      9.792667      8.861679      8.327860
  Mn      7.499568      7.535688      7.974557
13
Coordinates from ORCA-job pbe E -2780.709093717079
  Au      9.123042      6.785508      5.999605
  Au      4.816931      6.442680      7.660410
  Au      5.305355      9.295753      7.234315
  Au      6.570825      7.072363      5.489826
  Au      3.891203      7.726535      5.468145
  Au      4.102080      5.991711     10.227220
  Au      6.732226      5.513084      9.556334
  Au      9.231746      5.697120      8.788278
  Au     11.379805      6.771596      7.515161
  Au      5.389586      8.383852      9.780377
  Au      7.471958     10.003483      8.850781
  Au      9.791780      8.865008      8.323861
  Mn      7.499883      7.535973      7.972505
13
Coordinates from ORCA-job pbe E -2780.709097856911
  Au      9.122410      6.786348      6.000944
  Au      4.818303      6.440544      7.658749
  Au      5.305931      9.294615      7.236352
  Au      6.570452      7.070320      5.487348
  Au      3.891659      7.727075      5.468689
  Au      4.100760      5.993655     10.225953
  Au      6.732089      5.514805      9.558215
  Au      9.230422      5.695759      8.786175
  Au     11.379839      6.772439      7.516016
  Au      5.391692      8.382815      9.782388
  Au      7.472028     10.004864      8.851084
  Au      9.791095      8.865595      8.323306
  Mn      7.499740      7.535833      7.971598
13
Coordinates from ORCA-job pbe E -2780.709100066588
  Au      9.121353      6.787251      6.002820
  Au      4.819747      6.438734      7.657259
  Au      5.305204      9.294607      7.237225
  Au      6.569836      7.069740      5.485500
  Au      3.891017      7.727508      5.469539
  Au      4.100976      5.994391     10.224760
  Au      6.732328      5.514526      9.559130
  Au      9.230099      5.695812      8.785905
  Au     11.380151      6.771933      7.516496
  Au      5.393603      8.382572      9.782510
  Au      7.472658     10.006541      8.850143
  Au      9.790585      8.864945      8.323878
  Mn      7.498866      7.536105      7.971652
