13
E=  -1382.08242225;c=0;m=5
Au      5.236316834082970      9.589370529488029      4.705128591381180
Au      8.265490079782960      9.150313239652080      8.109705794457190
Au      5.909151144173390     10.811356926060469      7.255388879106960
Au      3.790381803160270      8.861269141419360      7.091840375396740
Au      5.619712051288130      8.763297370248400      9.250390170976940
Au      4.566443930325880      6.850362781260680      5.255944511146690
Au      4.529332342276420      6.324552513065200      8.112047091342520
Au      7.503376107540570      6.639692348577620      8.856265732009829
Au      6.245252901683650      4.223842145912760      8.666318682461769
Au      6.820597631655860      5.400684812193880      6.270403597069470
Au      7.316509273765740      7.426691719486130      4.512375194902870
Au      7.976869570568300      9.993975932149690      5.444834872436620
Fe      6.348798959695930      8.113756080485629      6.775128777311330
