19
E=  -2035.41019789;c=0;m=3
Au      5.050584577774740      8.525155352014609      4.978368247110250
Au      3.931334077044530      6.077205161953670      4.327650531069000
Au      3.581358788356330      6.897661728124410      6.995701795534250
Au      6.683686703650090      6.189755050669620      4.871304632063850
Au      7.689538186068720      4.724619598608590      7.156831771964380
Au      9.392181274508619      6.343817418962120      5.599374486529190
Au      5.649925265726760      5.897078167762580      8.768939707465750
Au      4.938045605468170      4.492697503115790      6.453668329732280
Au      3.578783563085930      9.701754526198160      7.138414436957780
Au      8.322061168378751      5.691624070306070      9.746201650022829
Au      4.097780908677260      8.105159992568030      9.441309809671219
Au      6.861921733930760      8.168147176205521      9.987823639222491
Au      9.686261687359920      8.196901155412259      9.660332770067670
Au     10.323809019730660      8.628209860519060      6.916456447623610
Au      8.144022225123029     10.033491877581991      8.116267117445579
Au      5.548098274118650     10.518056154207830      9.095167916581049
Au      6.072878408645730     10.736422627835070      6.323648207290980
Au      7.834761888169980      8.735431840016521      5.499235689183230
Fe      8.224557844181369      7.246148167938100      7.730139744464610
