15
E=  -1570.53491402;c=0;m=5
Au      8.939912054063971      8.676669371206881      6.291386088344090
Au      5.130449644322470     10.213935394660391      7.259208128406120
Au      8.190108130782930      7.478452920090270      3.866224990038650
Au      5.587182000447030      6.199333776637780      7.556871045713660
Au      6.038948736109090      8.341273485802599      5.525764955198400
Au      4.670810554076380      8.033804190535010      9.326935508394300
Au      7.485639987336480      4.138269623384430      7.033599255152390
Au      6.395849979431080      5.600424105325750      4.910259770309710
Au      8.440391207382859      6.307288316375140      8.538407561230050
Au      7.298463664678340      7.847531467616540     10.603609862917670
Au      9.313195382904389      5.910996304687360      5.886113463487670
Au      7.941191613714810     10.895069652772440      7.713613643194630
Au      6.161066810933200     10.420180432304150      9.940341464626320
Au      9.377816309304411      8.887954771246079      9.039737645461519
Cr      6.891029344512580      8.548614277355011      8.129019897524850
