15
Coordinates from ORCA-job pbe E -2945.814966717026
  Au      8.939912      8.676669      6.291386
  Au      5.130450     10.213935      7.259208
  Au      8.190108      7.478453      3.866225
  Au      5.587182      6.199334      7.556871
  Au      6.038949      8.341273      5.525765
  Au      4.670811      8.033804      9.326936
  Au      7.485640      4.138270      7.033599
  Au      6.395850      5.600424      4.910260
  Au      8.440391      6.307288      8.538408
  Au      7.298464      7.847531     10.603610
  Au      9.313195      5.910996      5.886113
  Au      7.941192     10.895070      7.713614
  Au      6.161067     10.420180      9.940341
  Au      9.377816      8.887955      9.039738
  Cr      6.891029      8.548614      8.129020
15
Coordinates from ORCA-job pbe E -2945.817389021105
  Au      8.940134      8.663970      6.288058
  Au      5.123276     10.221004      7.228867
  Au      8.177672      7.466075      3.904293
  Au      5.589549      6.198044      7.539607
  Au      6.037811      8.324012      5.523342
  Au      4.655768      8.004940      9.329340
  Au      7.484745      4.178923      7.022544
  Au      6.397490      5.625169      4.936622
  Au      8.442514      6.305132      8.525855
  Au      7.325421      7.851567     10.609149
  Au      9.289761      5.936594      5.907893
  Au      7.967074     10.894270      7.723508
  Au      6.155072     10.409851      9.928390
  Au      9.382670      8.882879      9.036015
  Cr      6.893098      8.537368      8.117610
15
Coordinates from ORCA-job pbe E -2945.819038906983
  Au      8.962577      8.671730      6.286798
  Au      5.119099     10.244029      7.184873
  Au      8.172846      7.451050      3.897294
  Au      5.562841      6.191582      7.528800
  Au      6.011158      8.319994      5.510466
  Au      4.636982      7.961400      9.346643
  Au      7.482892      4.174132      7.007551
  Au      6.367538      5.635702      4.940598
  Au      8.461521      6.299903      8.538136
  Au      7.369139      7.882941     10.630081
  Au      9.290715      5.955712      5.928541
  Au      8.006351     10.903593      7.764492
  Au      6.132108     10.390063      9.903090
  Au      9.393023      8.890816      9.046878
  Cr      6.893267      8.527150      8.106852
15
Coordinates from ORCA-job pbe E -2945.820067363578
  Au      8.970342      8.688636      6.289500
  Au      5.139752     10.255307      7.155225
  Au      8.167692      7.443725      3.909707
  Au      5.537298      6.185890      7.523223
  Au      5.986654      8.320993      5.500027
  Au      4.647973      7.927570      9.359838
  Au      7.481439      4.187305      7.000012
  Au      6.351527      5.644825      4.946424
  Au      8.465425      6.300668      8.556730
  Au      7.399788      7.911685     10.632591
  Au      9.277280      5.980294      5.951843
  Au      8.029947     10.898129      7.798691
  Au      6.102739     10.357612      9.862894
  Au      9.412682      8.884357      9.043059
  Cr      6.891517      8.512801      8.091327
15
Coordinates from ORCA-job pbe E -2945.821206232885
  Au      8.975311      8.725055      6.285382
  Au      5.175455     10.280025      7.127737
  Au      8.164892      7.444017      3.921236
  Au      5.501785      6.166745      7.511611
  Au      5.954947      8.317712      5.472874
  Au      4.671312      7.891512      9.388786
  Au      7.480201      4.198736      7.000685
  Au      6.338377      5.641859      4.939890
  Au      8.461481      6.294689      8.592883
  Au      7.431237      7.947085     10.633131
  Au      9.260805      6.007572      5.977805
  Au      8.051826     10.891583      7.839543
  Au      6.054783     10.333470      9.827407
  Au      9.453998      8.867956      9.034368
  Cr      6.885645      8.491784      8.067754
15
Coordinates from ORCA-job pbe E -2945.822250517970
  Au      8.974318      8.763503      6.276240
  Au      5.219994     10.297830      7.099183
  Au      8.163813      7.457295      3.934284
  Au      5.474710      6.150468      7.501374
  Au      5.930488      8.315098      5.451695
  Au      4.704237      7.855020      9.414021
  Au      7.478121      4.210646      7.013697
  Au      6.331040      5.634714      4.931401
  Au      8.450646      6.283944      8.629546
  Au      7.447321      7.978816     10.622812
  Au      9.243162      6.035165      6.003268
  Au      8.057787     10.877791      7.873670
  Au      6.018309     10.327299      9.813164
  Au      9.489756      8.844085      9.015669
  Cr      6.878352      8.468124      8.041069
15
Coordinates from ORCA-job pbe E -2945.823184625256
  Au      8.969367      8.802603      6.259625
  Au      5.265126     10.320574      7.082813
  Au      8.163240      7.467719      3.943103
  Au      5.458818      6.135460      7.486555
  Au      5.916200      8.302793      5.430805
  Au      4.739803      7.827848      9.443066
  Au      7.478027      4.218542      7.024839
  Au      6.331858      5.623114      4.918786
  Au      8.435107      6.266688      8.665363
  Au      7.448007      8.011746     10.608766
  Au      9.224280      6.058641      6.023525
  Au      8.048126     10.863923      7.905080
  Au      6.000561     10.332247      9.813559
  Au      9.513216      8.821891      8.999218
  Cr      6.870319      8.446010      8.015989
15
Coordinates from ORCA-job pbe E -2945.823859507187
  Au      8.963355      8.837680      6.241950
  Au      5.304378     10.336465      7.059002
  Au      8.166022      7.477347      3.948893
  Au      5.448759      6.129422      7.472243
  Au      5.903966      8.293955      5.424009
  Au      4.769272      7.798967      9.467059
  Au      7.479049      4.223626      7.033974
  Au      6.332704      5.610183      4.907452
  Au      8.417761      6.248273      8.697343
  Au      7.450441      8.039968     10.596903
  Au      9.204277      6.084688      6.046563
  Au      8.041173     10.851506      7.933744
  Au      5.993556     10.340276      9.820133
  Au      9.523602      8.803299      8.980289
  Cr      6.863739      8.424144      7.991538
15
Coordinates from ORCA-job pbe E -2945.824333852994
  Au      8.957762      8.872715      6.226390
  Au      5.338338     10.356238      7.040705
  Au      8.165332      7.481394      3.952607
  Au      5.438948      6.129583      7.455688
  Au      5.892257      8.274832      5.416657
  Au      4.794344      7.770323      9.489771
  Au      7.481191      4.226173      7.038469
  Au      6.332310      5.600961      4.894516
  Au      8.402298      6.232429      8.729623
  Au      7.458975      8.068620     10.593237
  Au      9.181099      6.114968      6.071749
  Au      8.043236     10.844591      7.961244
  Au      5.983298     10.339661      9.815271
  Au      9.531838      8.784045      8.965655
  Cr      6.860829      8.403265      7.969511
15
Coordinates from ORCA-job pbe E -2945.824743373896
  Au      8.953460      8.904050      6.211335
  Au      5.370052     10.370465      7.018762
  Au      8.167799      7.483880      3.953075
  Au      5.432533      6.131409      7.436068
  Au      5.879457      8.262377      5.419808
  Au      4.816277      7.745110      9.511087
  Au      7.480588      4.228279      7.040243
  Au      6.332598      5.586282      4.883887
  Au      8.386469      6.218464      8.757540
  Au      7.467450      8.089505     10.596941
  Au      9.154061      6.145322      6.099020
  Au      8.046277     10.846596      7.985963
  Au      5.974057     10.332934      9.807392
  Au      9.539082      8.768994      8.948486
  Cr      6.861896      8.386131      7.951487
15
Coordinates from ORCA-job pbe E -2945.825132195792
  Au      8.948614      8.934207      6.200995
  Au      5.402416     10.382948      6.996239
  Au      8.164390      7.488691      3.955196
  Au      5.423387      6.137358      7.423031
  Au      5.867838      8.245111      5.419930
  Au      4.839432      7.714064      9.527747
  Au      7.479692      4.227604      7.042610
  Au      6.332087      5.576899      4.868528
  Au      8.372801      6.207270      8.786539
  Au      7.479572      8.110889     10.605602
  Au      9.122419      6.180056      6.126043
  Au      8.057082     10.849473      8.005973
  Au      5.961554     10.320377      9.789582
  Au      9.542407      8.754166      8.935402
  Cr      6.868365      8.370685      7.937677
15
Coordinates from ORCA-job pbe E -2945.825540432557
  Au      8.946462      8.965944      6.190598
  Au      5.439749     10.394107      6.972175
  Au      8.160087      7.493022      3.954352
  Au      5.415351      6.138675      7.405029
  Au      5.854540      8.232344      5.419325
  Au      4.867283      7.680556      9.543813
  Au      7.473988      4.230638      7.047531
  Au      6.329116      5.564188      4.857694
  Au      8.360732      6.199775      8.813416
  Au      7.490251      8.128147     10.617663
  Au      9.084453      6.211929      6.154346
  Au      8.066297     10.859386      8.026896
  Au      5.947355     10.298880      9.764994
  Au      9.545094      8.742374      8.924831
  Cr      6.881296      8.359833      7.928431
15
Coordinates from ORCA-job pbe E -2945.825923445625
  Au      8.944442      8.993982      6.181570
  Au      5.481043     10.401593      6.941715
  Au      8.154818      7.503545      3.960298
  Au      5.400622      6.135642      7.391166
  Au      5.838441      8.220194      5.415772
  Au      4.897719      7.643737      9.560157
  Au      7.467971      4.231592      7.052903
  Au      6.326552      5.555169      4.844651
  Au      8.349770      6.191024      8.843117
  Au      7.501468      8.145356     10.632215
  Au      9.043048      6.247528      6.177322
  Au      8.079256     10.867298      8.045506
  Au      5.930752     10.276457      9.734990
  Au      9.548130      8.735375      8.915570
  Cr      6.898023      8.351305      7.924138
15
Coordinates from ORCA-job pbe E -2945.826216781360
  Au      8.941787      9.030338      6.172340
  Au      5.522619     10.411231      6.914504
  Au      8.149338      7.515297      3.961974
  Au      5.384947      6.133488      7.373186
  Au      5.818603      8.207517      5.406648
  Au      4.930042      7.602898      9.570843
  Au      7.464055      4.240473      7.067991
  Au      6.324964      5.545107      4.836048
  Au      8.337649      6.180978      8.870604
  Au      7.515036      8.163215     10.637700
  Au      8.999957      6.276593      6.207548
  Au      8.089810     10.871031      8.065192
  Au      5.914217     10.255875      9.711388
  Au      9.555055      8.722965      8.907736
  Cr      6.913975      8.342794      7.917392
15
Coordinates from ORCA-job pbe E -2945.826462942079
  Au      8.938692      9.060537      6.159162
  Au      5.560981     10.414618      6.887259
  Au      8.147958      7.532546      3.970856
  Au      5.366867      6.129817      7.352501
  Au      5.798216      8.191721      5.401693
  Au      4.961016      7.570251      9.583161
  Au      7.459037      4.243994      7.082136
  Au      6.327641      5.537444      4.826981
  Au      8.324142      6.171916      8.904254
  Au      7.526007      8.182733     10.638649
  Au      8.960036      6.314171      6.230481
  Au      8.095422     10.869371      8.086457
  Au      5.902126     10.242715      9.692127
  Au      9.567071      8.706377      8.895783
  Cr      6.926843      8.331587      7.909593
15
Coordinates from ORCA-job pbe E -2945.826682307415
  Au      8.936535      9.091506      6.150857
  Au      5.593427     10.415240      6.862322
  Au      8.146669      7.550822      3.978786
  Au      5.346524      6.128665      7.334291
  Au      5.774231      8.176847      5.396422
  Au      4.986493      7.541752      9.588348
  Au      7.457917      4.250305      7.098202
  Au      6.334537      5.529676      4.818946
  Au      8.313898      6.157659      8.933136
  Au      7.537992      8.204027     10.636682
  Au      8.919390      6.348436      6.257990
  Au      8.105878     10.860280      8.108718
  Au      5.889102     10.232490      9.677927
  Au      9.582570      8.692034      8.878327
  Cr      6.936893      8.320058      7.900138
15
Coordinates from ORCA-job pbe E -2945.826861235004
  Au      8.936417      9.119795      6.137421
  Au      5.618644     10.410571      6.845886
  Au      8.144527      7.564978      3.981129
  Au      5.333763      6.130669      7.319276
  Au      5.759092      8.165670      5.393646
  Au      5.009328      7.518461      9.586534
  Au      7.452312      4.253876      7.114831
  Au      6.341756      5.522298      4.813133
  Au      8.304592      6.148646      8.959951
  Au      7.548747      8.219316     10.634335
  Au      8.880844      6.377296      6.280242
  Au      8.107688     10.859704      8.129127
  Au      5.882907     10.221860      9.664174
  Au      9.591399      8.674785      8.867262
  Cr      6.950039      8.311874      7.894146
15
Coordinates from ORCA-job pbe E -2945.827077563504
  Au      8.937774      9.147863      6.127716
  Au      5.633664     10.399608      6.837343
  Au      8.142912      7.581708      3.982648
  Au      5.321739      6.129049      7.304401
  Au      5.744011      8.155060      5.389052
  Au      5.025266      7.509072      9.579204
  Au      7.447409      4.256003      7.130982
  Au      6.355114      5.515832      4.809339
  Au      8.297295      6.137148      8.987239
  Au      7.560763      8.237334     10.627789
  Au      8.842541      6.407374      6.303548
  Au      8.113016     10.850462      8.148741
  Au      5.877211     10.214913      9.656131
  Au      9.601399      8.655300      8.849437
  Cr      6.961943      8.303074      7.887524
15
Coordinates from ORCA-job pbe E -2945.827353110010
  Au      8.946783      9.171830      6.116787
  Au      5.620412     10.375022      6.853825
  Au      8.145905      7.596706      3.981321
  Au      5.311281      6.124190      7.297451
  Au      5.732765      8.149877      5.378796
  Au      5.021821      7.528063      9.551702
  Au      7.444248      4.256211      7.147982
  Au      6.380698      5.511720      4.812455
  Au      8.298412      6.123725      9.010897
  Au      7.576431      8.253875     10.609879
  Au      8.808174      6.433478      6.323963
  Au      8.115586     10.832120      8.168697
  Au      5.872183     10.222284      9.663406
  Au      9.618108      8.625377      8.823687
  Cr      6.969249      8.295321      7.880246
15
Coordinates from ORCA-job pbe E -2945.827468633444
  Au      8.949823      9.198912      6.107257
  Au      5.621618     10.365711      6.858939
  Au      8.148261      7.610158      3.983904
  Au      5.303477      6.118713      7.284317
  Au      5.721763      8.137868      5.371607
  Au      5.025379      7.537063      9.545175
  Au      7.446786      4.256140      7.157709
  Au      6.398674      5.505888      4.809159
  Au      8.292773      6.105893      9.036881
  Au      7.586953      8.276703     10.599100
  Au      8.774614      6.461919      6.347399
  Au      8.124122     10.813218      8.188043
  Au      5.860487     10.229131      9.669377
  Au      9.634014      8.599964      8.794416
  Cr      6.973311      8.282518      7.867808
15
Coordinates from ORCA-job pbe E -2945.827497513967
  Au      8.955926      9.193184      6.106009
  Au      5.599635     10.354020      6.878130
  Au      8.152999      7.609610      3.983244
  Au      5.308001      6.117999      7.291167
  Au      5.729156      8.144119      5.370673
  Au      5.010479      7.559888      9.530619
  Au      7.449916      4.253369      7.159748
  Au      6.405857      5.507973      4.814356
  Au      8.299867      6.106018      9.031624
  Au      7.585310      8.271113     10.587691
  Au      8.777335      6.459721      6.345977
  Au      8.119958     10.804558      8.184651
  Au      5.863904     10.242035      9.684409
  Au      9.633230      8.592866      8.785685
  Cr      6.970485      8.283324      7.867111
15
Coordinates from ORCA-job pbe E -2945.827510730726
  Au      8.957358      9.198225      6.102167
  Au      5.605439     10.356331      6.873219
  Au      8.153502      7.609117      3.984754
  Au      5.306893      6.118560      7.291469
  Au      5.729301      8.144310      5.370089
  Au      5.013985      7.551671      9.532833
  Au      7.450489      4.254300      7.160744
  Au      6.402637      5.507452      4.813622
  Au      8.299349      6.104257      9.035991
  Au      7.586754      8.275934     10.586715
  Au      8.770442      6.464182      6.348965
  Au      8.118816     10.804279      8.191154
  Au      5.859585     10.241348      9.681970
  Au      9.635032      8.589596      8.783479
  Cr      6.972471      8.280236      7.863925
15
Coordinates from ORCA-job pbe E -2945.827521050873
  Au      8.958620      9.196968      6.102062
  Au      5.605036     10.359796      6.873717
  Au      8.154554      7.606203      3.983479
  Au      5.310470      6.118652      7.294638
  Au      5.733329      8.146310      5.371723
  Au      5.012019      7.552320      9.536469
  Au      7.453056      4.252868      7.157307
  Au      6.397200      5.508399      4.813684
  Au      8.300362      6.103943      9.034737
  Au      7.583379      8.276363     10.585910
  Au      8.774089      6.461887      6.346917
  Au      8.117044     10.803147      8.189614
  Au      5.858002     10.242497      9.683377
  Au      9.633064      8.590787      8.784374
  Cr      6.971831      8.279656      7.863084
15
Coordinates from ORCA-job pbe E -2945.827527874811
  Au      8.960164      9.196391      6.100969
  Au      5.604780     10.362152      6.874619
  Au      8.156771      7.605113      3.983099
  Au      5.312909      6.118821      7.297935
  Au      5.736245      8.148614      5.373380
  Au      5.010712      7.553568      9.539403
  Au      7.456612      4.252228      7.155863
  Au      6.392653      5.510097      4.814541
  Au      8.300792      6.102718      9.034444
  Au      7.580811      8.277324     10.582911
  Au      8.774123      6.463383      6.347956
  Au      8.115027     10.799705      8.188900
  Au      5.854316     10.242638      9.682973
  Au      9.632809      8.588733      8.782247
  Cr      6.973331      8.278313      7.861854
15
Coordinates from ORCA-job pbe E -2945.827530085506
  Au      8.961722      9.195189      6.100688
  Au      5.600832     10.362227      6.876994
  Au      8.157701      7.602802      3.982134
  Au      5.315091      6.118916      7.300603
  Au      5.738739      8.150668      5.374316
  Au      5.007602      7.556907      9.539106
  Au      7.457640      4.251520      7.153663
  Au      6.391114      5.511961      4.816258
  Au      8.301887      6.102365      9.033598
  Au      7.580392      8.276450     10.580966
  Au      8.776237      6.461315      6.346160
  Au      8.113956     10.798062      8.188080
  Au      5.851731     10.243956      9.683788
  Au      9.633545      8.588781      8.782562
  Cr      6.973869      8.278680      7.862178
15
Coordinates from ORCA-job pbe E -2945.827531517033
  Au      8.961145      9.195280      6.100246
  Au      5.599826     10.362498      6.877522
  Au      8.158222      7.602688      3.981937
  Au      5.314843      6.119159      7.301285
  Au      5.738330      8.150999      5.374466
  Au      5.007280      7.557717      9.539031
  Au      7.457790      4.251306      7.153596
  Au      6.392195      5.512146      4.816383
  Au      8.300849      6.101691      9.033570
  Au      7.580552      8.276803     10.580036
  Au      8.776551      6.461819      6.346844
  Au      8.113199     10.797251      8.188386
  Au      5.851630     10.243738      9.683384
  Au      9.634918      8.587897      8.781980
  Cr      6.974726      8.278805      7.862427
