17
Coordinates from ORCA-job pbe E -3217.496415953166
  Au     10.663215     10.658620      9.695030
  Au     11.265926      8.274746      6.262322
  Au      9.606231      6.185118      7.069926
  Au      7.999019      6.593050      9.419953
  Au      7.444247      4.484065      7.460425
  Au      5.245852      5.678267      8.802375
  Au      5.770330      8.353861      9.384423
  Au     10.496756      7.978407      8.997115
  Au      8.171497      9.576034      9.655550
  Au      9.506820     10.322488      7.195434
  Au      8.646949      8.456949      5.323768
  Au      7.823313      5.785706      4.915434
  Au      5.965378      7.986275      4.768489
  Au      5.110623      5.366196      5.859821
  Au      4.287841      7.947018      7.058527
  Au      6.696218      9.678566      7.048346
  Cr      6.773522      6.995156      7.065555
17
Coordinates from ORCA-job pbe E -3217.498490906895
  Au     10.633254     10.630475      9.674338
  Au     11.230878      8.272259      6.278423
  Au      9.606352      6.196551      7.077990
  Au      8.012343      6.604318      9.417982
  Au      7.458479      4.481355      7.469250
  Au      5.261742      5.681745      8.821845
  Au      5.785152      8.350363      9.371651
  Au     10.466518      7.970053      8.980874
  Au      8.164995      9.553548      9.629554
  Au      9.484669     10.294822      7.193893
  Au      8.649665      8.462470      5.336561
  Au      7.836466      5.793101      4.917664
  Au      5.972437      8.001342      4.764026
  Au      5.115194      5.370953      5.863169
  Au      4.294826      7.970669      7.062192
  Au      6.713099      9.681774      7.052838
  Cr      6.787667      7.004722      7.070245
17
Coordinates from ORCA-job pbe E -3217.499609508852
  Au     10.644670     10.638621      9.677538
  Au     11.222728      8.270749      6.281114
  Au      9.605174      6.187655      7.081828
  Au      8.031072      6.611465      9.432064
  Au      7.465889      4.467688      7.477812
  Au      5.278237      5.668138      8.838097
  Au      5.767123      8.337650      9.364761
  Au     10.446509      7.956866      8.978014
  Au      8.154326      9.536834      9.612993
  Au      9.463621     10.284083      7.188781
  Au      8.643308      8.466182      5.330968
  Au      7.842312      5.792889      4.913744
  Au      5.969059      8.014690      4.752593
  Au      5.117361      5.378256      5.870837
  Au      4.295200      7.993644      7.049736
  Au      6.726498      9.701936      7.057471
  Cr      6.800649      7.013175      7.074144
17
Coordinates from ORCA-job pbe E -3217.500397969246
  Au     10.639178     10.623961      9.660835
  Au     11.219407      8.271522      6.284223
  Au      9.598907      6.173826      7.081876
  Au      8.043989      6.616048      9.453279
  Au      7.469698      4.460170      7.483572
  Au      5.304107      5.645838      8.843816
  Au      5.746658      8.327258      9.361911
  Au     10.429382      7.961850      8.979727
  Au      8.157461      9.525516      9.595951
  Au      9.452322     10.276412      7.199757
  Au      8.631929      8.464752      5.321551
  Au      7.841872      5.793629      4.914416
  Au      5.966475      8.023208      4.746783
  Au      5.123586      5.394655      5.888214
  Au      4.302629      8.012606      7.022816
  Au      6.731179      9.725837      7.064205
  Cr      6.814957      7.023433      7.079564
17
Coordinates from ORCA-job pbe E -3217.501022193487
  Au     10.648064     10.626584      9.659411
  Au     11.207178      8.268503      6.287307
  Au      9.592983      6.159297      7.078570
  Au      8.045406      6.611206      9.476211
  Au      7.475022      4.457168      7.486208
  Au      5.338881      5.625745      8.847325
  Au      5.737386      8.316991      9.352646
  Au     10.419977      7.959402      8.977801
  Au      8.137267      9.509919      9.586311
  Au      9.445413     10.270376      7.199943
  Au      8.621670      8.460714      5.310109
  Au      7.835976      5.793569      4.917052
  Au      5.968129      8.029322      4.743330
  Au      5.127882      5.415579      5.912845
  Au      4.318906      8.033151      6.993785
  Au      6.721445      9.746950      7.067276
  Cr      6.832151      7.036046      7.086364
17
Coordinates from ORCA-job pbe E -3217.501448860456
  Au     10.648282     10.623307      9.655188
  Au     11.197191      8.269256      6.294061
  Au      9.596153      6.147529      7.077537
  Au      8.045228      6.597670      9.498935
  Au      7.484062      4.450781      7.484554
  Au      5.366840      5.611489      8.859584
  Au      5.714878      8.299848      9.341719
  Au     10.417455      7.958772      8.974284
  Au      8.128536      9.501989      9.580495
  Au      9.445261     10.266194      7.198501
  Au      8.619067      8.462754      5.298449
  Au      7.825821      5.788776      4.916008
  Au      5.972858      8.034222      4.734426
  Au      5.125668      5.432189      5.935934
  Au      4.329463      8.057446      6.975024
  Au      6.706571      9.768138      7.063234
  Cr      6.850400      7.050162      7.094563
17
Coordinates from ORCA-job pbe E -3217.501837211854
  Au     10.628691     10.615792      9.656194
  Au     11.194387      8.269757      6.296736
  Au      9.603060      6.135240      7.074920
  Au      8.044716      6.579165      9.515071
  Au      7.495677      4.447095      7.475296
  Au      5.392914      5.595812      8.876160
  Au      5.714881      8.298643      9.339476
  Au     10.409703      7.952503      8.973455
  Au      8.113735      9.490115      9.573002
  Au      9.436966     10.262998      7.195066
  Au      8.619806      8.465282      5.284331
  Au      7.813256      5.784698      4.917309
  Au      5.983989      8.033589      4.724422
  Au      5.118757      5.452429      5.966970
  Au      4.336474      8.085246      6.957077
  Au      6.691508      9.784048      7.052840
  Cr      6.875216      7.068109      7.104170
17
Coordinates from ORCA-job pbe E -3217.502239588640
  Au     10.608404     10.609188      9.658354
  Au     11.192073      8.269273      6.297874
  Au      9.614001      6.131373      7.072983
  Au      8.043133      6.561027      9.522099
  Au      7.499664      4.449160      7.460126
  Au      5.411751      5.587296      8.890675
  Au      5.706942      8.290165      9.333026
  Au     10.402042      7.942559      8.970654
  Au      8.107281      9.481046      9.564828
  Au      9.427107     10.258897      7.187846
  Au      8.627774      8.469228      5.276227
  Au      7.803030      5.786627      4.925249
  Au      5.994202      8.023199      4.720023
  Au      5.113308      5.473659      5.999137
  Au      4.342424      8.108197      6.947470
  Au      6.679103      9.791538      7.040214
  Cr      6.901495      7.088088      7.115712
17
Coordinates from ORCA-job pbe E -3217.502587506887
  Au     10.592671     10.604970      9.660325
  Au     11.200884      8.272135      6.297127
  Au      9.629247      6.131135      7.070282
  Au      8.039998      6.546394      9.520238
  Au      7.493340      4.453154      7.441293
  Au      5.413903      5.578829      8.901292
  Au      5.702078      8.286401      9.332394
  Au     10.397817      7.935640      8.970491
  Au      8.105182      9.473974      9.557077
  Au      9.419584     10.258280      7.182915
  Au      8.641512      8.474038      5.269610
  Au      7.800842      5.791253      4.932234
  Au      5.998581      8.003680      4.719662
  Au      5.103970      5.491277      6.028626
  Au      4.337287      8.121401      6.942837
  Au      6.670483      9.790294      7.028417
  Cr      6.926357      7.107666      7.127676
17
Coordinates from ORCA-job pbe E -3217.502768978040
  Au     10.588529     10.603420      9.659339
  Au     11.208736      8.276156      6.298442
  Au      9.638378      6.129269      7.067646
  Au      8.038083      6.537463      9.515983
  Au      7.485121      4.461538      7.427151
  Au      5.410859      5.573566      8.907623
  Au      5.695183      8.279687      9.329162
  Au     10.393504      7.932654      8.970692
  Au      8.102052      9.465174      9.547651
  Au      9.413590     10.257049      7.181702
  Au      8.649511      8.476010      5.263855
  Au      7.804894      5.796342      4.936318
  Au      6.001475      7.985831      4.725212
  Au      5.098387      5.505966      6.050825
  Au      4.331005      8.127887      6.941854
  Au      6.666418      9.787284      7.020266
  Cr      6.948012      7.125225      7.138777
17
Coordinates from ORCA-job pbe E -3217.502851313453
  Au     10.593818     10.603228      9.655586
  Au     11.210055      8.278843      6.301368
  Au      9.642904      6.127368      7.065510
  Au      8.037924      6.533254      9.514296
  Au      7.478232      4.467589      7.422581
  Au      5.404041      5.569586      8.909496
  Au      5.687538      8.278219      9.332556
  Au     10.392573      7.933072      8.969834
  Au      8.099869      9.460693      9.543318
  Au      9.412614     10.255572      7.181986
  Au      8.653157      8.476173      5.259825
  Au      7.814334      5.798568      4.934172
  Au      6.000341      7.976832      4.731345
  Au      5.099026      5.511752      6.056682
  Au      4.323500      8.127756      6.942005
  Au      6.664852      9.786828      7.016150
  Cr      6.958960      7.135188      7.145784
17
Coordinates from ORCA-job pbe E -3217.502900937523
  Au     10.595062     10.602055      9.653142
  Au     11.211481      8.280664      6.302907
  Au      9.645158      6.122435      7.063196
  Au      8.039617      6.529742      9.513748
  Au      7.472858      4.473414      7.422261
  Au      5.398717      5.573408      8.912322
  Au      5.683642      8.275681      9.332168
  Au     10.390943      7.933967      8.970397
  Au      8.094362      9.454700      9.538857
  Au      9.410912     10.254553      7.183451
  Au      8.653181      8.475389      5.253814
  Au      7.823628      5.797985      4.928941
  Au      5.998565      7.972251      4.738047
  Au      5.104006      5.515348      6.056745
  Au      4.320309      8.128026      6.948879
  Au      6.664468      9.788039      7.012177
  Cr      6.966828      7.142865      7.151445
17
Coordinates from ORCA-job pbe E -3217.502931370239
  Au     10.597091     10.600073      9.649507
  Au     11.206094      8.278874      6.303289
  Au      9.645172      6.118992      7.062263
  Au      8.040719      6.526764      9.517339
  Au      7.471235      4.478070      7.424575
  Au      5.395905      5.574267      8.910181
  Au      5.679112      8.277881      9.337865
  Au     10.389881      7.932589      8.968443
  Au      8.092142      9.453068      9.538160
  Au      9.409765     10.251759      7.181964
  Au      8.651360      8.474618      5.250315
  Au      7.831135      5.798611      4.926461
  Au      5.998305      7.972386      4.743206
  Au      5.113625      5.517202      6.052584
  Au      4.319239      8.125390      6.950432
  Au      6.662252      9.792184      7.010236
  Cr      6.970704      7.147795      7.155675
17
Coordinates from ORCA-job pbe E -3217.502953423520
  Au     10.594315     10.598053      9.648591
  Au     11.203530      8.276499      6.301208
  Au      9.646080      6.115862      7.062239
  Au      8.041030      6.524510      9.520608
  Au      7.471143      4.479769      7.427614
  Au      5.392988      5.579750      8.907833
  Au      5.679362      8.280425      9.341231
  Au     10.389354      7.930516      8.967616
  Au      8.091015      9.452548      9.538279
  Au      9.408402     10.250287      7.180249
  Au      8.650015      8.475131      5.247016
  Au      7.834940      5.798401      4.924921
  Au      5.997643      7.974587      4.745480
  Au      5.122249      5.516746      6.046708
  Au      4.320209      8.121820      6.955521
  Au      6.659860      9.795433      7.009174
  Cr      6.971604      7.150183      7.158211
17
Coordinates from ORCA-job pbe E -3217.502973155300
  Au     10.590187     10.595700      9.648096
  Au     11.200874      8.273136      6.297672
  Au      9.647753      6.112359      7.063094
  Au      8.039978      6.522039      9.524220
  Au      7.471545      4.481317      7.431309
  Au      5.388052      5.587613      8.902235
  Au      5.681544      8.284738      9.345591
  Au     10.388660      7.927178      8.966320
  Au      8.092074      9.452835      9.538150
  Au      9.406346     10.248220      7.177561
  Au      8.648721      8.476760      5.243303
  Au      7.838207      5.799843      4.925837
  Au      5.996982      7.977619      4.747622
  Au      5.132441      5.515340      6.038964
  Au      4.321875      8.114221      6.962241
  Au      6.656114      9.798375      7.008629
  Cr      6.972385      7.153227      7.161651
17
Coordinates from ORCA-job pbe E -3217.502983925856
  Au     10.589331     10.595036      9.648106
  Au     11.199822      8.271417      6.295513
  Au      9.649277      6.110359      7.064264
  Au      8.038389      6.521083      9.525405
  Au      7.471578      4.481774      7.433840
  Au      5.382776      5.593466      8.896528
  Au      5.683905      8.288237      9.348643
  Au     10.388661      7.925495      8.965599
  Au      8.094475      9.453580      9.537881
  Au      9.405555     10.247098      7.176217
  Au      8.648267      8.478559      5.241075
  Au      7.839761      5.801922      4.928002
  Au      5.996048      7.979603      4.748672
  Au      5.137487      5.512821      6.032906
  Au      4.322344      8.106137      6.967159
  Au      6.653693      9.798886      7.008755
  Cr      6.972369      7.155049      7.163930
17
Coordinates from ORCA-job pbe E -3217.502993093477
  Au     10.591103     10.595351      9.648045
  Au     11.198830      8.270286      6.294119
  Au      9.650755      6.108474      7.065967
  Au      8.036621      6.520698      9.525357
  Au      7.471196      4.481921      7.436383
  Au      5.376429      5.599356      8.889033
  Au      5.686548      8.291961      9.351557
  Au     10.388932      7.924860      8.965266
  Au      8.097640      9.454496      9.537344
  Au      9.405327     10.246320      7.175817
  Au      8.647822      8.480856      5.239092
  Au      7.840353      5.804768      4.931380
  Au      5.994762      7.981497      4.749689
  Au      5.140709      5.509108      6.026444
  Au      4.322622      8.095650      6.971938
  Au      6.651903      9.798224      7.009016
  Cr      6.972185      7.156697      7.166049
17
Coordinates from ORCA-job pbe E -3217.502997032741
  Au     10.593974     10.596162      9.647822
  Au     11.198030      8.270044      6.294143
  Au      9.651168      6.107733      7.067187
  Au      8.036225      6.520926      9.524367
  Au      7.470714      4.481644      7.437610
  Au      5.373068      5.602110      8.884734
  Au      5.687681      8.293714      9.352875
  Au     10.389347      7.925570      8.965630
  Au      8.099213      9.455110      9.537298
  Au      9.405806     10.246511      7.176537
  Au      8.647495      8.482256      5.238474
  Au      7.839745      5.806238      4.933409
  Au      5.993870      7.982450      4.750069
  Au      5.140963      5.506336      6.022901
  Au      4.322650      8.089471      6.973964
  Au      6.651955      9.797263      7.008973
  Cr      6.971833      7.156982      7.166501
17
Coordinates from ORCA-job pbe E -3217.502998821251
  Au     10.596058     10.596744      9.647471
  Au     11.197111      8.269881      6.294588
  Au      9.651014      6.107396      7.068038
  Au      8.036740      6.521042      9.523468
  Au      7.470260      4.481249      7.438075
  Au      5.371975      5.603143      8.882770
  Au      5.687966      8.294371      9.353286
  Au     10.389642      7.926491      8.966261
  Au      8.099488      9.455470      9.537554
  Au      9.406273     10.247092      7.177421
  Au      8.647143      8.483089      5.238423
  Au      7.838872      5.806732      4.934278
  Au      5.993346      7.982926      4.750166
  Au      5.140495      5.504796      6.021321
  Au      4.322884      8.086612      6.974605
  Au      6.652731      9.796729      7.008579
  Cr      6.971739      7.156758      7.166190
