15
E=  -1600.05496631;c=0;m=3
Au      9.778807769813090      8.203281312834740      6.222335959833660
Au      7.517563909397820      9.765218861847490      6.923595454997110
Au      8.604471543907550      5.776457142598210      5.399265775099150
Au      7.528855221462800      8.246709903086240      4.474810042977220
Au      5.835627279042800      6.290179785373600      5.742206839851320
Au      3.963809853473910      7.200492309571540      7.654115383633320
Au      5.075424130863580      9.017342400579960      5.702407522561920
Au      5.177556612227660      9.706700402509830      8.506741715682100
Au      7.229633278330510      4.944350674962170      7.736704555967060
Au      8.914541170313210      8.418630411601031      8.915695981320001
Au      9.936018003241889      5.917695015142230      7.915232874281840
Au      6.585467874340270      8.352567859681340     10.514124482316991
Au      5.368811400028290      5.846474816974260      9.663957350834410
Au      8.209515940104460      5.986529729898060     10.180711659379689
Fe      6.483880323452270      7.533542183339330      8.073777221264370
