15
Coordinates from ORCA-job pbe E -3165.048328242370
  Au      9.778808      8.203281      6.222336
  Au      7.517564      9.765219      6.923595
  Au      8.604472      5.776457      5.399266
  Au      7.528855      8.246710      4.474810
  Au      5.835627      6.290180      5.742207
  Au      3.963810      7.200492      7.654115
  Au      5.075424      9.017342      5.702408
  Au      5.177557      9.706700      8.506742
  Au      7.229633      4.944351      7.736705
  Au      8.914541      8.418630      8.915696
  Au      9.936018      5.917695      7.915233
  Au      6.585468      8.352568     10.514124
  Au      5.368811      5.846475      9.663957
  Au      8.209516      5.986530     10.180712
  Fe      6.483880      7.533542      8.073777
15
Coordinates from ORCA-job pbe E -3165.050850039730
  Au      9.749273      8.202046      6.241911
  Au      7.525096      9.746034      6.924191
  Au      8.581494      5.788293      5.423649
  Au      7.523584      8.237569      4.509747
  Au      5.854332      6.294257      5.751377
  Au      3.967882      7.189950      7.644810
  Au      5.097285      9.004694      5.708785
  Au      5.189466      9.714759      8.502877
  Au      7.234463      4.961209      7.725862
  Au      8.907698      8.412406      8.896514
  Au      9.903920      5.934335      7.911553
  Au      6.597617      8.359571     10.510270
  Au      5.372336      5.835347      9.654621
  Au      8.209307      5.994708     10.156050
  Fe      6.496230      7.530995      8.063467
15
Coordinates from ORCA-job pbe E -3165.051648452628
  Au      9.746353      8.216174      6.253090
  Au      7.528576      9.744653      6.917185
  Au      8.567035      5.777917      5.427079
  Au      7.511158      8.239464      4.522711
  Au      5.859697      6.296865      5.746659
  Au      3.965717      7.173408      7.641299
  Au      5.104929      8.997496      5.719036
  Au      5.200474      9.728031      8.507467
  Au      7.241874      4.960673      7.724013
  Au      8.912481      8.408102      8.892587
  Au      9.889379      5.937819      7.920965
  Au      6.604751      8.374780     10.510181
  Au      5.366250      5.821094      9.645647
  Au      8.201594      6.001517     10.145448
  Fe      6.509716      7.528180      8.052317
15
Coordinates from ORCA-job pbe E -3165.052259633245
  Au      9.749691      8.220357      6.253474
  Au      7.532674      9.748315      6.912921
  Au      8.566009      5.773545      5.425107
  Au      7.512132      8.235809      4.532574
  Au      5.861536      6.295347      5.741653
  Au      3.964871      7.157822      7.643323
  Au      5.101350      8.990539      5.744621
  Au      5.210850      9.737478      8.515245
  Au      7.245823      4.955873      7.721628
  Au      8.917949      8.408286      8.891253
  Au      9.880680      5.942971      7.917474
  Au      6.606641      8.389977     10.507768
  Au      5.357882      5.811050      9.636110
  Au      8.177568      6.013697     10.142266
  Fe      6.524327      7.525105      8.040264
15
Coordinates from ORCA-job pbe E -3165.052810304431
  Au      9.757749      8.222883      6.249005
  Au      7.538892      9.757372      6.910785
  Au      8.570527      5.769203      5.418724
  Au      7.513767      8.232628      4.540091
  Au      5.860070      6.288331      5.735022
  Au      3.966224      7.144576      7.649734
  Au      5.094213      8.983635      5.775444
  Au      5.220514      9.741905      8.525046
  Au      7.246680      4.945085      7.717785
  Au      8.925808      8.414019      8.892509
  Au      9.874670      5.947200      7.913849
  Au      6.603743      8.403848     10.502651
  Au      5.348310      5.806298      9.626363
  Au      8.148044      6.027625     10.141918
  Fe      6.540773      7.521566      8.026758
15
Coordinates from ORCA-job pbe E -3165.053154064118
  Au      9.763840      8.222465      6.244608
  Au      7.546474      9.769544      6.910047
  Au      8.575582      5.767823      5.414434
  Au      7.512363      8.230041      4.549715
  Au      5.856621      6.277704      5.727367
  Au      3.969952      7.136130      7.656607
  Au      5.088680      8.976556      5.804353
  Au      5.228312      9.741525      8.532920
  Au      7.245961      4.931360      7.712664
  Au      8.935219      8.422985      8.895079
  Au      9.865182      5.952276      7.913073
  Au      6.599784      8.412896     10.495876
  Au      5.341984      5.806006      9.617697
  Au      8.120822      6.041257     10.139612
  Fe      6.559208      7.517605      8.011631
15
Coordinates from ORCA-job pbe E -3165.053343904776
  Au      9.765555      8.221456      6.241758
  Au      7.553985      9.781823      6.910959
  Au      8.577891      5.769232      5.412684
  Au      7.507546      8.228755      4.560345
  Au      5.852125      6.265689      5.720520
  Au      3.973311      7.134575      7.659716
  Au      5.087235      8.971096      5.822022
  Au      5.231713      9.739170      8.535123
  Au      7.243145      4.916813      7.707772
  Au      8.944271      8.434119      8.898933
  Au      9.854979      5.956837      7.915103
  Au      6.597301      8.415069     10.491916
  Au      5.340069      5.807862      9.613865
  Au      8.104560      6.049840     10.137167
  Fe      6.576297      7.513838      7.997800
15
Coordinates from ORCA-job pbe E -3165.053527781519
  Au      9.764311      8.219828      6.242549
  Au      7.559886      9.795469      6.914556
  Au      8.577659      5.771320      5.415056
  Au      7.500327      8.228641      4.570628
  Au      5.844742      6.252262      5.715172
  Au      3.977251      7.138361      7.661265
  Au      5.089661      8.967765      5.827348
  Au      5.231975      9.733794      8.534137
  Au      7.237808      4.902849      7.703734
  Au      8.951566      8.446877      8.904099
  Au      9.842367      5.961483      7.920213
  Au      6.596429      8.411105     10.488373
  Au      5.342717      5.812406      9.612421
  Au      8.100290      6.053791     10.131971
  Fe      6.592996      7.510222      7.984162
15
Coordinates from ORCA-job pbe E -3165.053632098163
  Au      9.761454      8.220652      6.243623
  Au      7.561067      9.799567      6.917421
  Au      8.574786      5.772790      5.416409
  Au      7.497179      8.228596      4.575194
  Au      5.841497      6.247629      5.715018
  Au      3.979731      7.142119      7.660880
  Au      5.093712      8.966941      5.823336
  Au      5.231274      9.730068      8.531740
  Au      7.233752      4.897949      7.703322
  Au      8.952698      8.452611      8.907278
  Au      9.838635      5.962834      7.921756
  Au      6.595576      8.407495     10.487123
  Au      5.344795      5.815779      9.613029
  Au      8.104637      6.052316     10.130228
  Fe      6.599191      7.508825      7.979327
15
Coordinates from ORCA-job pbe E -3165.053874899115
  Au      9.752970      8.222277      6.253526
  Au      7.560430      9.810985      6.928248
  Au      8.565218      5.774012      5.426312
  Au      7.493206      8.228097      4.582276
  Au      5.829263      6.235976      5.717650
  Au      3.986425      7.157193      7.660336
  Au      5.103576      8.969193      5.800824
  Au      5.225543      9.716617      8.523377
  Au      7.221180      4.889952      7.703635
  Au      8.951135      8.466256      8.914921
  Au      9.827632      5.967238      7.924897
  Au      6.595740      8.390923     10.483097
  Au      5.356604      5.827511      9.616735
  Au      8.126882      6.044283     10.122691
  Fe      6.614179      7.505663      7.967160
15
Coordinates from ORCA-job pbe E -3165.053975924645
  Au      9.745495      8.227688      6.258098
  Au      7.560260      9.821610      6.935827
  Au      8.554930      5.775310      5.429779
  Au      7.490912      8.225763      4.592715
  Au      5.819169      6.226348      5.718474
  Au      3.994755      7.168004      7.661651
  Au      5.112431      8.968553      5.788820
  Au      5.223487      9.703762      8.517735
  Au      7.209752      4.877860      7.705533
  Au      8.952406      8.479742      8.925350
  Au      9.821165      5.971305      7.922750
  Au      6.591310      8.380379     10.477847
  Au      5.361577      5.839399      9.618070
  Au      8.138707      6.039178     10.120957
  Fe      6.633627      7.501271      7.952078
15
Coordinates from ORCA-job pbe E -3165.054030943678
  Au      9.744455      8.230707      6.263156
  Au      7.558470      9.828324      6.938529
  Au      8.550837      5.772335      5.433053
  Au      7.494286      8.223541      4.595198
  Au      5.812459      6.222899      5.717902
  Au      3.997884      7.171953      7.664236
  Au      5.111608      8.970136      5.784959
  Au      5.222292      9.697951      8.517300
  Au      7.205606      4.873385      7.707235
  Au      8.952629      8.483922      8.929594
  Au      9.816842      5.974416      7.920266
  Au      6.589986      8.375792     10.474503
  Au      5.364458      5.844381      9.618045
  Au      8.142213      6.037746     10.119833
  Fe      6.645960      7.498687      7.941875
15
Coordinates from ORCA-job pbe E -3165.054107629296
  Au      9.742232      8.238917      6.269251
  Au      7.551831      9.831078      6.939453
  Au      8.542069      5.766791      5.434917
  Au      7.500556      8.220533      4.596714
  Au      5.806659      6.226195      5.719303
  Au      4.002253      7.176807      7.665753
  Au      5.108876      8.974021      5.777536
  Au      5.220968      9.691228      8.514762
  Au      7.201951      4.871731      7.713775
  Au      8.950233      8.483519      8.935892
  Au      9.817632      5.976554      7.913294
  Au      6.587754      8.370123     10.471169
  Au      5.367405      5.850476      9.619390
  Au      8.147440      6.033005     10.125475
  Fe      6.662124      7.495195      7.929000
15
Coordinates from ORCA-job pbe E -3165.054136188883
  Au      9.742346      8.241716      6.272036
  Au      7.547376      9.829904      6.936979
  Au      8.539671      5.763516      5.435880
  Au      7.501882      8.220613      4.595419
  Au      5.805916      6.231774      5.719064
  Au      4.003869      7.177621      7.666755
  Au      5.103817      8.977485      5.774904
  Au      5.220609      9.689150      8.514413
  Au      7.203763      4.874326      7.717859
  Au      8.948794      8.478448      8.937033
  Au      9.817814      5.976509      7.913055
  Au      6.587413      8.368360     10.469491
  Au      5.368860      5.852256      9.619746
  Au      8.148472      6.030747     10.130007
  Fe      6.669384      7.493748      7.923041
15
Coordinates from ORCA-job pbe E -3165.054147918723
  Au      9.741673      8.241380      6.271762
  Au      7.546045      9.827452      6.934905
  Au      8.539764      5.763881      5.435862
  Au      7.500255      8.221659      4.594801
  Au      5.807765      6.235368      5.718721
  Au      4.004505      7.178546      7.666476
  Au      5.099928      8.979953      5.773372
  Au      5.219834      9.688476      8.513335
  Au      7.205860      4.876556      7.719169
  Au      8.948492      8.474994      8.936424
  Au      9.818383      5.975533      7.914584
  Au      6.587092      8.367182     10.469469
  Au      5.369604      5.853065      9.620896
  Au      8.148776      6.028878     10.134880
  Fe      6.672008      7.493249      7.921026
15
Coordinates from ORCA-job pbe E -3165.054154882109
  Au      9.741190      8.238994      6.270333
  Au      7.545962      9.825701      6.933221
  Au      8.541754      5.765737      5.435716
  Au      7.496282      8.223603      4.594513
  Au      5.809648      6.237407      5.717810
  Au      4.005638      7.178552      7.666584
  Au      5.096319      8.981834      5.773001
  Au      5.219948      9.687775      8.513038
  Au      7.207830      4.878069      7.719317
  Au      8.948944      8.472680      8.935510
  Au      9.817758      5.974230      7.918484
  Au      6.586838      8.366917     10.468694
  Au      5.370012      5.853834      9.620848
  Au      8.148206      6.027851     10.138840
  Fe      6.673655      7.492988      7.919773
