15
E=  -1599.80214763;c=0;m=5
Au      7.016690867268530      4.783876931902540      7.472598172851200
Au      8.059212481718699      6.002343480735330      5.253725520879120
Au      7.160538837153580      8.617440818836860      4.580942423696550
Au      8.827142968398631     10.577876418372311      5.866631946966080
Au      9.981234893820661      8.006170011432831      5.178727481531300
Au      9.557173911030700      6.309753968857850      7.684464378125150
Au     10.628755043482910      9.169649735253181      7.652693776687600
Au      6.375432546615820      8.494994708258989      9.274024682077849
Au      8.234228526211391     10.546595515005860      8.680510989753280
Au      5.650307817895700      7.192226532209460      6.506156541826620
Au      7.663966885787510      5.947929098171400      9.945816459350979
Au      5.005727470858210      6.091483340056190      8.978519525525650
Au      9.263434224470700      8.167330163885181      9.854659335267529
Au      6.119382699056140     10.014121655276931      6.840679420518930
Fe      8.073270306230970      8.320527281745139      7.125931464942110
