15
Coordinates from ORCA-job pbe E -3165.080744312057
  Au      7.080887      5.283511      7.320654
  Au      8.782650      6.164879      5.403850
  Au      7.157180      8.403844      4.721399
  Au      8.842286     10.443060      6.145639
  Au      9.926139      8.501797      4.508090
  Au      9.653065      6.010770      8.097628
  Au     10.587997      8.531628      7.279338
  Au      6.328561      8.505056      9.394465
  Au      8.010550     10.570875      8.753105
  Au      5.324786      7.392559      6.533082
  Au      7.601466      6.040653     10.032896
  Au      5.000679      6.114974      8.957520
  Au      9.234513      8.260248      9.706327
  Au      6.144999     10.012845      6.749927
  Fe      7.940742      8.005621      7.292163
15
Coordinates from ORCA-job pbe E -3165.080746985735
  Au      7.080532      5.283059      7.320395
  Au      8.783703      6.165548      5.404195
  Au      7.157217      8.403894      4.721445
  Au      8.841413     10.444020      6.146051
  Au      9.926650      8.501200      4.507662
  Au      9.653123      6.010096      8.097135
  Au     10.588475      8.531537      7.279928
  Au      6.329151      8.505825      9.394353
  Au      8.010635     10.571223      8.752826
  Au      5.324738      7.392601      6.534137
  Au      7.601467      6.040208     10.032880
  Au      5.000152      6.115183      8.957864
  Au      9.234053      8.259889      9.705848
  Au      6.144287     10.012649      6.749460
  Fe      7.940904      8.005388      7.291902
