16
Coordinates from ORCA-job pbe E -3300.909216150807
  Au      5.834877      7.631825      6.354727
  Au      8.505029      7.818285      5.472951
  Au      9.865160      9.962399      6.885110
  Au      7.052467     10.169505      6.269826
  Au     10.397002      7.160403      7.516666
  Au      7.984270      5.690638      7.351943
  Au      5.499350      9.584549      8.544216
  Au      7.980476     10.872842      8.899920
  Au      3.911243      7.245794      8.395536
  Au      6.309192      6.196609      9.698193
  Au      5.278154      5.041750      7.318984
  Au      4.730929      8.230813     10.894455
  Au      7.469996      8.684439     10.710924
  Au      9.077516      6.402301      9.938213
  Au     10.069010      9.070180      9.658943
  Fe      8.020024      8.305864      8.079331
16
Coordinates from ORCA-job pbe E -3300.911790441844
  Au      5.848948      7.643580      6.383179
  Au      8.502900      7.792808      5.496286
  Au      9.817057      9.956507      6.882825
  Au      7.056544     10.151138      6.287012
  Au     10.373948      7.169517      7.530947
  Au      7.974333      5.710225      7.348541
  Au      5.519452      9.559833      8.532588
  Au      7.978858     10.846587      8.922347
  Au      3.947500      7.255725      8.391814
  Au      6.321625      6.215779      9.683169
  Au      5.304104      5.075097      7.327112
  Au      4.761929      8.231431     10.865082
  Au      7.462935      8.688792     10.690238
  Au      9.056457      6.417084      9.921819
  Au     10.050345      9.053364      9.644949
  Fe      8.007762      8.300726      8.082031
16
Coordinates from ORCA-job pbe E -3300.912581405794
  Au      5.840348      7.652366      6.394219
  Au      8.522739      7.764695      5.494582
  Au      9.790347      9.967715      6.868514
  Au      7.075693     10.164899      6.278544
  Au     10.381169      7.177622      7.542033
  Au      7.964241      5.712930      7.330226
  Au      5.514325      9.548359      8.522329
  Au      7.994332     10.847828      8.953548
  Au      3.941130      7.246605      8.397741
  Au      6.332083      6.220595      9.680988
  Au      5.309937      5.069500      7.329874
  Au      4.765488      8.230258     10.870210
  Au      7.450928      8.705587     10.687700
  Au      9.039506      6.414796      9.920996
  Au     10.060792      9.043776      9.637221
  Fe      8.001639      8.300663      8.081211
16
Coordinates from ORCA-job pbe E -3300.912818864281
  Au      5.847631      7.666379      6.401178
  Au      8.533927      7.742398      5.492046
  Au      9.775181      9.981034      6.854061
  Au      7.077630     10.159893      6.284268
  Au     10.392294      7.186666      7.548356
  Au      7.958788      5.709807      7.312617
  Au      5.524962      9.543527      8.509870
  Au      8.002091     10.849226      8.977472
  Au      3.931459      7.238133      8.402887
  Au      6.333303      6.225037      9.678266
  Au      5.302100      5.065562      7.332570
  Au      4.757157      8.226948     10.871463
  Au      7.441816      8.721522     10.691647
  Au      9.035959      6.412222      9.922396
  Au     10.074262      9.039786      9.629859
  Fe      7.996136      8.300057      8.080978
16
Coordinates from ORCA-job pbe E -3300.912928304982
  Au      5.845257      7.659351      6.400938
  Au      8.541495      7.740005      5.488579
  Au      9.778030      9.983328      6.852195
  Au      7.077970     10.164480      6.280726
  Au     10.393813      7.185010      7.550193
  Au      7.959228      5.706893      7.309762
  Au      5.521575      9.542390      8.516540
  Au      8.008912     10.853141      8.981516
  Au      3.927427      7.231532      8.407493
  Au      6.334069      6.231385      9.673268
  Au      5.296152      5.069111      7.336553
  Au      4.751844      8.222921     10.866426
  Au      7.441325      8.724325     10.695032
  Au      9.038199      6.417603      9.917547
  Au     10.075825      9.037690      9.631650
  Fe      7.993575      8.299031      8.081520
16
Coordinates from ORCA-job pbe E -3300.913023444975
  Au      5.846861      7.653210      6.399247
  Au      8.548143      7.741273      5.490598
  Au      9.775234      9.979862      6.854429
  Au      7.075355     10.160076      6.284758
  Au     10.392738      7.185347      7.547629
  Au      7.963058      5.702753      7.307489
  Au      5.521707      9.543381      8.523056
  Au      8.016521     10.851990      8.981040
  Au      3.919161      7.229354      8.407787
  Au      6.339164      6.240635      9.666519
  Au      5.292951      5.069552      7.333999
  Au      4.747376      8.224954     10.865647
  Au      7.443965      8.727080     10.700326
  Au      9.039130      6.422608      9.912609
  Au     10.074269      9.039646      9.631703
  Fe      7.989064      8.296474      8.083101
16
Coordinates from ORCA-job pbe E -3300.913136008408
  Au      5.852240      7.643050      6.401248
  Au      8.552673      7.744172      5.491062
  Au      9.773786      9.974927      6.857737
  Au      7.064227     10.150142      6.292905
  Au     10.394819      7.184874      7.542668
  Au      7.965919      5.692228      7.303390
  Au      5.525483      9.540558      8.533671
  Au      8.022618     10.851942      8.978214
  Au      3.911071      7.230473      8.405381
  Au      6.345028      6.261992      9.649819
  Au      5.291245      5.075642      7.331106
  Au      4.744741      8.227934     10.859687
  Au      7.443857      8.731090     10.712327
  Au      9.044750      6.425296      9.909601
  Au     10.074662      9.043903      9.634050
  Fe      7.977576      8.289973      8.087069
16
Coordinates from ORCA-job pbe E -3300.913202449238
  Au      5.853821      7.641357      6.402662
  Au      8.551167      7.743434      5.493651
  Au      9.770194      9.971981      6.859292
  Au      7.066097     10.147747      6.295814
  Au     10.393254      7.186845      7.546020
  Au      7.970536      5.688926      7.297715
  Au      5.527017      9.538877      8.535314
  Au      8.022205     10.848734      8.977514
  Au      3.904675      7.232704      8.402677
  Au      6.348871      6.275455      9.638997
  Au      5.292533      5.073173      7.329659
  Au      4.744838      8.228853     10.862934
  Au      7.446300      8.737674     10.717419
  Au      9.050608      6.426814      9.907830
  Au     10.072916      9.040055      9.632778
  Fe      7.969666      8.285567      8.089661
16
Coordinates from ORCA-job pbe E -3300.913268236094
  Au      5.851622      7.643926      6.403487
  Au      8.545032      7.744965      5.495037
  Au      9.773413      9.967978      6.862863
  Au      7.067952     10.149293      6.295070
  Au     10.391822      7.187257      7.546157
  Au      7.976421      5.686617      7.293854
  Au      5.525295      9.537652      8.532293
  Au      8.017706     10.846393      8.973298
  Au      3.902932      7.236333      8.399756
  Au      6.352220      6.288962      9.627589
  Au      5.297767      5.068949      7.332153
  Au      4.749389      8.226048     10.868558
  Au      7.450458      8.743406     10.721517
  Au      9.051241      6.420497      9.911529
  Au     10.069816      9.039117      9.634314
  Fe      7.961612      8.280802      8.092462
16
Coordinates from ORCA-job pbe E -3300.913298818324
  Au      5.846236      7.647135      6.401981
  Au      8.538156      7.747823      5.494789
  Au      9.776379      9.964148      6.866370
  Au      7.074722     10.152956      6.293539
  Au     10.390340      7.188086      7.547485
  Au      7.979785      5.685404      7.292352
  Au      5.520384      9.538179      8.528424
  Au      8.012717     10.846098      8.967273
  Au      3.904697      7.237956      8.398910
  Au      6.352560      6.296497      9.620777
  Au      5.302713      5.066504      7.335938
  Au      4.755143      8.221901     10.872043
  Au      7.452864      8.746943     10.723673
  Au      9.054050      6.414065      9.915692
  Au     10.066954      9.037220      9.635930
  Fe      7.956997      8.277281      8.094760
16
Coordinates from ORCA-job pbe E -3300.913308793152
  Au      5.843352      7.649035      6.400186
  Au      8.535906      7.746971      5.494544
  Au      9.779648      9.963160      6.867386
  Au      7.074915     10.154566      6.293061
  Au     10.389547      7.188594      7.547757
  Au      7.980817      5.685460      7.292937
  Au      5.517598      9.539379      8.526178
  Au      8.011794     10.845971      8.966291
  Au      3.905851      7.236897      8.399596
  Au      6.354011      6.297708      9.619658
  Au      5.304736      5.066563      7.336231
  Au      4.757632      8.221242     10.872621
  Au      7.454154      8.748301     10.723974
  Au      9.053398      6.412171      9.915863
  Au     10.065299      9.036712      9.637412
  Fe      7.956040      8.275465      8.096241
16
Coordinates from ORCA-job pbe E -3300.913322110825
  Au      5.839792      7.651289      6.397218
  Au      8.533131      7.745174      5.494620
  Au      9.780508      9.961478      6.868171
  Au      7.076623     10.155717      6.294532
  Au     10.389633      7.190598      7.547151
  Au      7.981698      5.684852      7.294038
  Au      5.513769      9.540830      8.523459
  Au      8.011901     10.845447      8.964369
  Au      3.907309      7.234772      8.401140
  Au      6.355519      6.297806      9.619475
  Au      5.305596      5.068446      7.334541
  Au      4.759924      8.221720     10.871308
  Au      7.455346      8.750821     10.725260
  Au      9.054994      6.409624      9.915631
  Au     10.063748      9.037265      9.640047
  Fe      7.955205      8.272357      8.098977
16
Coordinates from ORCA-job pbe E -3300.913344076561
  Au      5.835544      7.654988      6.391298
  Au      8.527132      7.740374      5.494558
  Au      9.780417      9.957559      6.869126
  Au      7.077818     10.157441      6.299266
  Au     10.390961      7.196782      7.546679
  Au      7.982087      5.682665      7.297462
  Au      5.508641      9.543131      8.518559
  Au      8.012945     10.844002      8.959761
  Au      3.909333      7.230467      8.403794
  Au      6.359272      6.297091      9.619790
  Au      5.306229      5.073423      7.328436
  Au      4.763643      8.224542     10.868102
  Au      7.456961      8.756604     10.729466
  Au      9.059355      6.406187      9.912209
  Au     10.061195      9.037682      9.646139
  Fe      7.953165      8.265258      8.105293
16
Coordinates from ORCA-job pbe E -3300.913365737337
  Au      5.833442      7.658384      6.385347
  Au      8.519875      7.734111      5.494750
  Au      9.778732      9.952561      6.869617
  Au      7.077772     10.160096      6.305361
  Au     10.393286      7.205813      7.545630
  Au      7.982467      5.680070      7.302569
  Au      5.504868      9.543114      8.513562
  Au      8.015587     10.841334      8.952520
  Au      3.910957      7.227610      8.405681
  Au      6.362962      6.295992      9.620259
  Au      5.304938      5.079008      7.319989
  Au      4.767608      8.227665     10.864608
  Au      7.458927      8.764705     10.735598
  Au      9.065714      6.401853      9.906453
  Au     10.057369      9.038896      9.655261
  Fe      7.950192      8.256984      8.112733
16
Coordinates from ORCA-job pbe E -3300.913395204128
  Au      5.832494      7.662308      6.374269
  Au      8.505352      7.723673      5.493653
  Au      9.776869      9.942441      6.870232
  Au      7.076580     10.166114      6.316762
  Au     10.397882      7.224613      7.544269
  Au      7.981457      5.675600      7.314898
  Au      5.500634      9.541818      8.505832
  Au      8.021068     10.837220      8.935026
  Au      3.913113      7.224212      8.406261
  Au      6.368702      6.294227      9.620017
  Au      5.302400      5.088153      7.305643
  Au      4.775440      8.230606     10.861227
  Au      7.462730      8.780721     10.748546
  Au      9.076775      6.393541      9.892888
  Au     10.049287      9.039923      9.674885
  Fe      7.943915      8.243027      8.125529
16
Coordinates from ORCA-job pbe E -3300.913427003049
  Au      5.835140      7.661164      6.370388
  Au      8.500845      7.722312      5.492279
  Au      9.777824      9.938488      6.869988
  Au      7.073772     10.166823      6.319696
  Au     10.399797      7.232005      7.543671
  Au      7.981061      5.673789      7.321517
  Au      5.501764      9.539151      8.506419
  Au      8.023637     10.837499      8.926505
  Au      3.912476      7.227312      8.403631
  Au      6.368615      6.294510      9.619302
  Au      5.298798      5.088841      7.301662
  Au      4.779016      8.228508     10.861936
  Au      7.464050      8.785993     10.754281
  Au      9.081285      6.391211      9.885909
  Au     10.045237      9.040109      9.684366
  Fe      7.941381      8.240481      8.128387
16
Coordinates from ORCA-job pbe E -3300.913507955630
  Au      5.845298      7.649640      6.365001
  Au      8.495298      7.723191      5.486619
  Au      9.782982      9.931866      6.866997
  Au      7.064973     10.165052      6.322906
  Au     10.404056      7.247274      7.542052
  Au      7.976768      5.672983      7.338749
  Au      5.512416      9.530989      8.516018
  Au      8.030870     10.843099      8.906761
  Au      3.908621      7.241737      8.386889
  Au      6.362602      6.297683      9.613952
  Au      5.289253      5.084797      7.302544
  Au      4.784964      8.212805     10.871356
  Au      7.468298      8.795629     10.767405
  Au      9.087122      6.387798      9.868194
  Au     10.035227      9.038449      9.707215
  Fe      7.935948      8.245202      8.127278
16
Coordinates from ORCA-job pbe E -3300.913533087409
  Au      5.845168      7.646739      6.365072
  Au      8.498585      7.723628      5.485267
  Au      9.785018      9.935314      6.866555
  Au      7.065627     10.162673      6.321189
  Au     10.403002      7.245111      7.543884
  Au      7.976781      5.675561      7.336283
  Au      5.513647      9.530680      8.520768
  Au      8.031600     10.845631      8.910117
  Au      3.908053      7.246247      8.384250
  Au      6.360192      6.299847      9.612612
  Au      5.288677      5.079014      7.310006
  Au      4.786206      8.207090     10.873137
  Au      7.467096      8.791675     10.764003
  Au      9.081820      6.388621      9.870552
  Au     10.035841      9.038075      9.704116
  Fe      7.937385      8.252292      8.122126
16
Coordinates from ORCA-job pbe E -3300.913550166487
  Au      5.839777      7.643079      6.353661
  Au      8.490387      7.712397      5.480531
  Au      9.789991      9.932422      6.866432
  Au      7.067514     10.163547      6.330750
  Au     10.403070      7.258985      7.546094
  Au      7.975010      5.678537      7.342881
  Au      5.509286      9.531911      8.522054
  Au      8.038716     10.846655      8.901644
  Au      3.910798      7.250622      8.376214
  Au      6.361459      6.303712      9.606791
  Au      5.289002      5.076801      7.315996
  Au      4.794984      8.196159     10.875110
  Au      7.471403      8.799194     10.768898
  Au      9.079842      6.380383      9.863698
  Au     10.028567      9.038207      9.716411
  Fe      7.934891      8.255581      8.122771
16
Coordinates from ORCA-job pbe E -3300.913564854684
  Au      5.839397      7.642608      6.358304
  Au      8.495139      7.715047      5.481670
  Au      9.789022      9.936010      6.865034
  Au      7.066714     10.160498      6.327627
  Au     10.400891      7.251410      7.545615
  Au      7.974457      5.679260      7.338217
  Au      5.509329      9.534609      8.521695
  Au      8.036675     10.847753      8.911210
  Au      3.911223      7.247909      8.376315
  Au      6.360947      6.300820      9.608833
  Au      5.290481      5.077314      7.318119
  Au      4.787829      8.200622     10.875062
  Au      7.470099      8.792902     10.765074
  Au      9.079382      6.384349      9.868501
  Au     10.034272      9.037997      9.708997
  Fe      7.938841      8.259087      8.119662
16
Coordinates from ORCA-job pbe E -3300.913570817496
  Au      5.840226      7.642940      6.356770
  Au      8.493241      7.715107      5.481502
  Au      9.788306      9.934289      6.865257
  Au      7.065901     10.160323      6.328361
  Au     10.401196      7.252722      7.545193
  Au      7.975222      5.677224      7.339245
  Au      5.508899      9.534396      8.520798
  Au      8.035954     10.847006      8.910464
  Au      3.911307      7.248561      8.377357
  Au      6.362258      6.302222      9.608548
  Au      5.288746      5.077270      7.315659
  Au      4.789381      8.202432     10.873482
  Au      7.470028      8.793411     10.766810
  Au      9.082340      6.384605      9.867023
  Au     10.033577      9.038089      9.712177
  Fe      7.938114      8.257598      8.121291
16
Coordinates from ORCA-job pbe E -3300.913575521234
  Au      5.840087      7.641956      6.354514
  Au      8.490470      7.714054      5.480621
  Au      9.787893      9.932425      6.865777
  Au      7.065246     10.159576      6.329926
  Au     10.400833      7.254771      7.544545
  Au      7.975427      5.675757      7.340761
  Au      5.508003      9.535419      8.519963
  Au      8.035931     10.846388      8.909649
  Au      3.912136      7.249617      8.376037
  Au      6.363952      6.304782      9.606508
  Au      5.287710      5.076890      7.315442
  Au      4.790614      8.203028     10.872494
  Au      7.470962      8.793301     10.769606
  Au      9.085247      6.384167      9.865362
  Au     10.032652      9.038173      9.716327
  Fe      7.937535      8.257890      8.122404
16
Coordinates from ORCA-job pbe E -3300.913579860003
  Au      5.839519      7.640475      6.352083
  Au      8.487067      7.712724      5.479422
  Au      9.787321      9.930869      6.866947
  Au      7.064485     10.158374      6.330896
  Au     10.399795      7.256073      7.543557
  Au      7.975602      5.674376      7.342465
  Au      5.506384      9.537731      8.518293
  Au      8.035081     10.845354      8.910250
  Au      3.913629      7.250806      8.374083
  Au      6.366360      6.308195      9.603727
  Au      5.286864      5.076011      7.316375
  Au      4.791247      8.204616     10.870980
  Au      7.472520      8.790877     10.773149
  Au      9.088841      6.383742      9.863883
  Au     10.032202      9.038419      9.720428
  Fe      7.937782      8.259554      8.123400
