11
E=  -1145.98831862;c=0;m=4
Au      9.586164848593191      7.093491279411820      9.144040067687000
Au      8.024410518621330      7.112978185757450      4.921726515683280
Au      9.434065574120190      4.350818601317620      9.262317287577959
Au      8.891248335589720      5.458271644893690      6.804145654211410
Au      8.146853160785099      9.786602200958340      5.844259936642320
Au      6.318759908567030      9.983772662828811      8.054776559533170
Au      9.090161428741300      9.620591703811490      8.508236433056091
Au      7.024257915456600      5.659507034174470      9.063029017832960
Au      5.161049076206650      7.420665908929570      8.384621338818580
Au      5.638617744175080      8.382921976765919      5.765756816679830
Mn      7.613951359143810      7.703536391150830      7.458882122277410
