11
Coordinates from ORCA-job pbe E -2402.467293001995
  Au     10.928582      5.789711      8.560117
  Au     12.255846      4.886571      6.261531
  Au      9.763844      3.943964      6.525065
  Au     10.256294      6.794849      5.793905
  Au      6.769801      5.406569      9.390329
  Au      7.212422      3.781307      7.086368
  Au      6.113929      6.386038      6.694760
  Au      8.982233      7.265506      9.645841
  Au      6.496986      8.265259      8.890158
  Au      8.278567      8.317511      6.752196
  Cr      8.524932      5.889567      7.533371
11
Coordinates from ORCA-job pbe E -2402.470672351682
  Au     10.951038      5.790475      8.572726
  Au     12.278335      4.918306      6.268027
  Au      9.786208      3.900253      6.503602
  Au     10.270848      6.806311      5.776525
  Au      6.758575      5.422636      9.398778
  Au      7.147566      3.759330      7.094016
  Au      6.102787      6.402345      6.703348
  Au      8.983482      7.271380      9.666647
  Au      6.512663      8.236321      8.876059
  Au      8.271957      8.334644      6.741019
  Cr      8.519979      5.884853      7.532893
11
Coordinates from ORCA-job pbe E -2402.472663618898
  Au     10.967625      5.814952      8.574074
  Au     12.227183      4.944045      6.290108
  Au      9.774970      3.861167      6.491988
  Au     10.288525      6.828043      5.783286
  Au      6.747895      5.436939      9.402350
  Au      7.141780      3.736646      7.087231
  Au      6.094225      6.414455      6.713513
  Au      9.006449      7.260219      9.702043
  Au      6.535553      8.194984      8.855928
  Au      8.276175      8.350764      6.700963
  Cr      8.523056      5.884641      7.532158
11
Coordinates from ORCA-job pbe E -2402.473841829128
  Au     10.978157      5.859115      8.593363
  Au     12.215259      4.935147      6.288804
  Au      9.739409      3.815085      6.484127
  Au     10.296931      6.875084      5.792915
  Au      6.737223      5.435229      9.406300
  Au      7.142862      3.729584      7.084604
  Au      6.083606      6.414166      6.713290
  Au      9.025055      7.245295      9.750897
  Au      6.568837      8.157221      8.834489
  Au      8.270876      8.371311      6.651150
  Cr      8.525223      5.889616      7.533701
11
Coordinates from ORCA-job pbe E -2402.475124031090
  Au     10.989231      5.900109      8.588341
  Au     12.157407      4.925100      6.299019
  Au      9.724574      3.794404      6.480021
  Au     10.315036      6.905564      5.816927
  Au      6.743268      5.411676      9.411553
  Au      7.135370      3.740382      7.090703
  Au      6.084079      6.400204      6.692375
  Au      9.031784      7.232172      9.797370
  Au      6.614773      8.131088      8.814188
  Au      8.255955      8.390085      6.608606
  Cr      8.531961      5.896070      7.534536
11
Coordinates from ORCA-job pbe E -2402.476297671356
  Au     10.993641      5.937568      8.583346
  Au     12.127384      4.926992      6.306855
  Au      9.701144      3.781518      6.480686
  Au     10.326710      6.932896      5.841958
  Au      6.755125      5.383676      9.415962
  Au      7.107972      3.765191      7.107166
  Au      6.089460      6.383267      6.666930
  Au      9.037080      7.207859      9.844387
  Au      6.668819      8.103086      8.790947
  Au      8.237405      8.400477      6.559424
  Cr      8.538695      5.904323      7.535979
11
Coordinates from ORCA-job pbe E -2402.477405928933
  Au     10.999044      5.971815      8.580038
  Au     12.110742      4.919023      6.307800
  Au      9.675965      3.782360      6.486724
  Au     10.337907      6.959323      5.863811
  Au      6.769359      5.359636      9.423963
  Au      7.079860      3.788116      7.123464
  Au      6.096038      6.371576      6.640186
  Au      9.040436      7.175407      9.896284
  Au      6.712220      8.074003      8.769651
  Au      8.213926      8.407592      6.503006
  Cr      8.547941      5.918003      7.538714
11
Coordinates from ORCA-job pbe E -2402.478532152389
  Au     11.003948      5.995927      8.578616
  Au     12.104081      4.919248      6.308692
  Au      9.651171      3.795686      6.497483
  Au     10.346481      6.979031      5.878697
  Au      6.783645      5.346040      9.437194
  Au      7.051459      3.801292      7.136355
  Au      6.102065      6.370426      6.616038
  Au      9.041901      7.132881      9.946697
  Au      6.752774      8.045605      8.748949
  Au      8.188306      8.406137      6.442559
  Cr      8.557606      5.934581      7.542359
11
Coordinates from ORCA-job pbe E -2402.479594211169
  Au     11.009357      6.010089      8.582436
  Au     12.102335      4.920484      6.308846
  Au      9.632876      3.820945      6.511105
  Au     10.351857      6.994486      5.883766
  Au      6.795737      5.340652      9.454033
  Au      7.026946      3.804486      7.144559
  Au      6.105614      6.376809      6.595575
  Au      9.041499      7.082388      9.995841
  Au      6.789383      8.023399      8.731215
  Au      8.160627      8.398105      6.378998
  Cr      8.567208      5.955009      7.547266
11
Coordinates from ORCA-job pbe E -2402.480397273278
  Au     11.017069      6.022405      8.587724
  Au     12.094473      4.930147      6.313349
  Au      9.615361      3.838751      6.521948
  Au     10.358878      7.009469      5.885803
  Au      6.802551      5.336670      9.466248
  Au      7.007345      3.808467      7.151749
  Au      6.106569      6.381002      6.581607
  Au      9.040209      7.031035     10.043984
  Au      6.833983      8.004749      8.712851
  Au      8.132291      8.388710      6.315689
  Cr      8.574708      5.975448      7.552686
11
Coordinates from ORCA-job pbe E -2402.481025719283
  Au     11.021435      6.032575      8.597357
  Au     12.085546      4.939612      6.318646
  Au      9.605082      3.855949      6.530831
  Au     10.360230      7.025601      5.885030
  Au      6.804182      5.331262      9.475220
  Au      6.991764      3.813418      7.157961
  Au      6.103878      6.381595      6.571706
  Au      9.042206      6.976923     10.090152
  Au      6.880985      7.995394      8.697374
  Au      8.107338      8.376253      6.250119
  Cr      8.580792      5.998271      7.559242
11
Coordinates from ORCA-job pbe E -2402.481494390413
  Au     11.026586      6.040603      8.603552
  Au     12.078447      4.952477      6.324194
  Au      9.595485      3.866186      6.537179
  Au     10.364851      7.037659      5.885355
  Au      6.798025      5.329366      9.477059
  Au      6.985561      3.818532      7.161699
  Au      6.097851      6.379994      6.571948
  Au      9.039973      6.926994     10.131355
  Au      6.933538      7.991486      8.682938
  Au      8.079875      8.362796      6.191705
  Cr      8.583243      6.020761      7.566655
11
Coordinates from ORCA-job pbe E -2402.481890994984
  Au     11.024933      6.033083      8.609579
  Au     12.086792      4.964925      6.326318
  Au      9.601893      3.887533      6.543843
  Au     10.359282      7.038093      5.879104
  Au      6.782240      5.332584      9.473195
  Au      6.987889      3.820318      7.161733
  Au      6.086029      6.377385      6.583796
  Au      9.038677      6.877106     10.161671
  Au      6.975042      8.008065      8.678425
  Au      8.059367      8.342057      6.139851
  Cr      8.581294      6.045705      7.576127
11
Coordinates from ORCA-job pbe E -2402.482317955356
  Au     11.019886      6.015533      8.606770
  Au     12.106854      4.977966      6.324701
  Au      9.616486      3.908836      6.548559
  Au     10.355253      7.023769      5.874071
  Au      6.755473      5.345033      9.458166
  Au      7.005216      3.820517      7.158308
  Au      6.070666      6.374356      6.611751
  Au      9.033117      6.838110     10.177513
  Au      7.007920      8.034513      8.680423
  Au      8.040659      8.319766      6.106516
  Cr      8.571907      6.068456      7.586861
11
Coordinates from ORCA-job pbe E -2402.482744405243
  Au     11.009569      5.987554      8.592547
  Au     12.141550      4.985961      6.319312
  Au      9.642632      3.932221      6.550702
  Au     10.347298      6.994526      5.871285
  Au      6.722010      5.364353      9.437823
  Au      7.036869      3.819595      7.150763
  Au      6.051500      6.371942      6.650617
  Au      9.026325      6.814081     10.176061
  Au      7.019974      8.072711      8.691695
  Au      8.032183      8.297914      6.094968
  Cr      8.553526      6.085994      7.597867
11
Coordinates from ORCA-job pbe E -2402.482941897439
  Au     10.995419      5.960924      8.579298
  Au     12.179100      4.997159      6.311399
  Au      9.668586      3.956378      6.553415
  Au     10.339832      6.963048      5.870361
  Au      6.687901      5.385716      9.420695
  Au      7.068274      3.821848      7.146137
  Au      6.031978      6.373576      6.685614
  Au      9.022377      6.790006     10.171809
  Au      7.033334      8.102646      8.700195
  Au      8.024747      8.275304      6.085784
  Cr      8.531888      6.100248      7.608933
11
Coordinates from ORCA-job pbe E -2402.483021208215
  Au     10.994473      5.956979      8.578507
  Au     12.186837      5.000585      6.314359
  Au      9.672840      3.958118      6.552051
  Au     10.334762      6.961128      5.866876
  Au      6.679204      5.389666      9.421160
  Au      7.075796      3.824650      7.144752
  Au      6.023314      6.374134      6.692180
  Au      9.024428      6.783317     10.173344
  Au      7.038273      8.106509      8.700164
  Au      8.027080      8.271836      6.080519
  Cr      8.526429      6.099932      7.609727
11
Coordinates from ORCA-job pbe E -2402.483147522692
  Au     10.989444      5.948400      8.588582
  Au     12.199735      5.015460      6.312822
  Au      9.685064      3.965550      6.552108
  Au     10.327448      6.955430      5.855679
  Au      6.657412      5.400365      9.423540
  Au      7.088263      3.833155      7.146739
  Au      6.006067      6.379762      6.701715
  Au      9.029800      6.761831     10.179828
  Au      7.056948      8.109374      8.696821
  Au      8.026245      8.260966      6.064315
  Cr      8.517010      6.096560      7.611493
11
Coordinates from ORCA-job pbe E -2402.483212509203
  Au     10.991055      5.940020      8.588239
  Au     12.209661      5.023607      6.319131
  Au      9.693207      3.975221      6.552461
  Au     10.321177      6.950741      5.846201
  Au      6.646482      5.408254      9.424558
  Au      7.095508      3.839046      7.146265
  Au      5.995932      6.383062      6.711795
  Au      9.025081      6.744601     10.186139
  Au      7.072026      8.114752      8.694696
  Au      8.019978      8.252303      6.052897
  Cr      8.513328      6.095246      7.611259
11
Coordinates from ORCA-job pbe E -2402.483292540653
  Au     10.991201      5.935625      8.594784
  Au     12.210087      5.030515      6.322531
  Au      9.700010      3.979111      6.551660
  Au     10.317785      6.947325      5.835985
  Au      6.637335      5.415148      9.421982
  Au      7.103305      3.844357      7.146525
  Au      5.990619      6.385627      6.720781
  Au      9.020708      6.733549     10.190624
  Au      7.084820      8.119839      8.693705
  Au      8.012108      8.247913      6.047023
  Cr      8.515459      6.087844      7.608041
11
Coordinates from ORCA-job pbe E -2402.483390479446
  Au     10.990309      5.933924      8.606050
  Au     12.204891      5.041455      6.326415
  Au      9.706638      3.980558      6.551101
  Au     10.311269      6.947451      5.824971
  Au      6.630936      5.425223      9.416196
  Au      7.106738      3.846277      7.145483
  Au      5.990062      6.389002      6.734420
  Au      9.009149      6.717703     10.198966
  Au      7.108940      8.125247      8.689684
  Au      7.999061      8.240756      6.037589
  Cr      8.525443      6.079257      7.602765
11
Coordinates from ORCA-job pbe E -2402.483469808774
  Au     10.987817      5.934141      8.614382
  Au     12.202741      5.052224      6.331233
  Au      9.709798      3.975619      6.547983
  Au     10.307701      6.947538      5.818607
  Au      6.624265      5.433370      9.406453
  Au      7.109161      3.842805      7.142968
  Au      5.989737      6.390118      6.750093
  Au      8.999845      6.704040     10.207485
  Au      7.132244      8.137699      8.689097
  Au      7.983492      8.235230      6.027286
  Cr      8.536635      6.074069      7.598054
11
Coordinates from ORCA-job pbe E -2402.483519836250
  Au     10.985639      5.939529      8.620345
  Au     12.198445      5.057883      6.334251
  Au      9.709691      3.966172      6.545156
  Au     10.302360      6.954276      5.818115
  Au      6.622648      5.438179      9.397885
  Au      7.107184      3.838536      7.140512
  Au      5.992307      6.389415      6.761281
  Au      8.991809      6.694194     10.215993
  Au      7.152643      8.144301      8.686651
  Au      7.973608      8.230668      6.017912
  Cr      8.547101      6.073699      7.595538
11
Coordinates from ORCA-job pbe E -2402.483534078157
  Au     10.984150      5.941304      8.619245
  Au     12.200545      5.060218      6.335545
  Au      9.707962      3.961868      6.543785
  Au     10.302261      6.955609      5.820893
  Au      6.622814      5.437858      9.397326
  Au      7.106038      3.836055      7.139583
  Au      5.991623      6.389805      6.761665
  Au      8.992356      6.690919     10.217815
  Au      7.156364      8.148843      8.687785
  Au      7.971330      8.228218      6.013876
  Cr      8.547993      6.076157      7.596123
11
Coordinates from ORCA-job pbe E -2402.483540802117
  Au     10.983536      5.941473      8.619916
  Au     12.200948      5.059942      6.336238
  Au      9.708407      3.959485      6.542727
  Au     10.300940      6.956555      5.820470
  Au      6.620536      5.438337      9.393997
  Au      7.109206      3.838286      7.139011
  Au      5.989747      6.388124      6.765538
  Au      8.992217      6.689083     10.219528
  Au      7.159627      8.150684      8.687831
  Au      7.970333      8.226847      6.011608
  Cr      8.547941      6.078036      7.596776
11
Coordinates from ORCA-job pbe E -2402.483548925848
  Au     10.983491      5.940720      8.619632
  Au     12.201176      5.059120      6.336217
  Au      9.707850      3.960323      6.543286
  Au     10.300936      6.956731      5.820650
  Au      6.622803      5.436860      9.395380
  Au      7.108671      3.839663      7.138836
  Au      5.989584      6.388164      6.763439
  Au      8.992771      6.689002     10.219039
  Au      7.157655      8.150263      8.688106
  Au      7.971127      8.225384      6.011254
  Cr      8.547372      6.080622      7.597801
11
Coordinates from ORCA-job pbe E -2402.483567977530
  Au     10.983246      5.934385      8.621471
  Au     12.202594      5.060554      6.337060
  Au      9.708322      3.964386      6.544731
  Au     10.300817      6.953897      5.816774
  Au      6.625543      5.435175      9.396492
  Au      7.109658      3.843742      7.137305
  Au      5.987374      6.388252      6.763035
  Au      8.992949      6.687067     10.218666
  Au      7.155249      8.152084      8.689171
  Au      7.970306      8.220373      6.009094
  Cr      8.547379      6.086938      7.599841
11
Coordinates from ORCA-job pbe E -2402.483586344749
  Au     10.983570      5.925737      8.626312
  Au     12.202660      5.062910      6.339237
  Au      9.708830      3.968073      6.545756
  Au     10.300034      6.950862      5.809348
  Au      6.628445      5.433582      9.396374
  Au      7.110265      3.847284      7.134650
  Au      5.985403      6.388021      6.764944
  Au      8.992469      6.687338     10.218788
  Au      7.153068      8.153452      8.689735
  Au      7.968378      8.216754      6.007735
  Cr      8.550314      6.092841      7.600761
11
Coordinates from ORCA-job pbe E -2402.483601428122
  Au     10.983384      5.915033      8.632367
  Au     12.203373      5.066545      6.340825
  Au      9.710136      3.971344      6.546466
  Au     10.298293      6.946808      5.800779
  Au      6.629282      5.433292      9.394675
  Au      7.111667      3.849212      7.131422
  Au      5.983414      6.387436      6.769802
  Au      8.991367      6.689441     10.219485
  Au      7.151958      8.154823      8.689822
  Au      7.966235      8.214984      6.006912
  Cr      8.554328      6.097936      7.601085
11
Coordinates from ORCA-job pbe E -2402.483608238356
  Au     10.982621      5.907326      8.635876
  Au     12.204678      5.068440      6.342098
  Au      9.710942      3.973319      6.546409
  Au     10.296117      6.943799      5.795403
  Au      6.629235      5.433023      9.393145
  Au      7.112797      3.849053      7.129910
  Au      5.982897      6.386992      6.772904
  Au      8.991321      6.692866     10.219848
  Au      7.150820      8.154835      8.689772
  Au      7.965095      8.216356      6.007253
  Cr      8.556914      6.100844      7.601024
11
Coordinates from ORCA-job pbe E -2402.483611176855
  Au     10.981734      5.903447      8.636726
  Au     12.205613      5.069486      6.341268
  Au      9.711299      3.974006      6.546633
  Au     10.294309      6.941694      5.793860
  Au      6.629034      5.432587      9.392800
  Au      7.113458      3.847928      7.130168
  Au      5.983833      6.387002      6.772778
  Au      8.991364      6.695791     10.220140
  Au      7.149443      8.154245      8.689845
  Au      7.965856      8.218771      6.008105
  Cr      8.557494      6.101897      7.601318
11
Coordinates from ORCA-job pbe E -2402.483613301946
  Au     10.980298      5.901509      8.636652
  Au     12.206213      5.069343      6.341616
  Au      9.711320      3.974327      6.546080
  Au     10.292187      6.940277      5.793173
  Au      6.629284      5.431965      9.392639
  Au      7.114111      3.846595      7.131607
  Au      5.985763      6.386943      6.771251
  Au      8.991999      6.697978     10.220190
  Au      7.148734      8.153265      8.690098
  Au      7.966107      8.222322      6.008921
  Cr      8.557420      6.102329      7.601413
11
Coordinates from ORCA-job pbe E -2402.483614514699
  Au     10.979263      5.900373      8.636484
  Au     12.206206      5.070313      6.340394
  Au      9.711675      3.974277      6.546226
  Au     10.290344      6.938919      5.792914
  Au      6.628920      5.432034      9.392667
  Au      7.115109      3.845730      7.133124
  Au      5.987682      6.386722      6.769619
  Au      8.991392      6.698089     10.220949
  Au      7.149086      8.153553      8.690313
  Au      7.966874      8.224445      6.009058
  Cr      8.556886      6.102398      7.601892
11
Coordinates from ORCA-job pbe E -2402.483615293954
  Au     10.978515      5.899885      8.636645
  Au     12.206006      5.070810      6.340857
  Au      9.711958      3.974472      6.545877
  Au     10.288950      6.938243      5.791859
  Au      6.628762      5.432399      9.392658
  Au      7.115956      3.845335      7.134397
  Au      5.989107      6.386411      6.768453
  Au      8.991205      6.696885     10.221354
  Au      7.150080      8.154112      8.690495
  Au      7.966495      8.225680      6.008920
  Cr      8.556403      6.102622      7.602124
