17
Coordinates from ORCA-job pbe E -3436.748992913279
  Au     10.161644      7.452623      6.503538
  Au      6.782099     10.801253      6.628848
  Au      7.129249      7.638631     10.124770
  Au      7.696422     10.243807      9.246573
  Au      9.695007      8.263869      9.172188
  Au      7.759111      8.454034      5.302323
  Au      5.224558      9.203987      8.382569
  Au      6.416059      4.911452      9.759487
  Au      4.396675      6.912205      9.834189
  Au      3.654997      7.145619      7.113829
  Au      5.669289      6.345737      5.281128
  Au      9.463286     10.112322      6.987431
  Au      4.993454      9.047048      5.464817
  Au      8.380142      5.691489      5.339419
  Au      6.553994      4.273436      7.005958
  Au      8.644622      5.815455      8.255182
  Fe      6.070983      6.655009      7.868209
17
Coordinates from ORCA-job pbe E -3436.752046353527
  Au     10.129431      7.453075      6.511142
  Au      6.783004     10.768584      6.635089
  Au      7.131204      7.640860     10.115997
  Au      7.685501     10.213172      9.231263
  Au      9.663767      8.253259      9.157916
  Au      7.752953      8.447382      5.319564
  Au      5.236349      9.197484      8.377663
  Au      6.437108      4.924616      9.758356
  Au      4.409378      6.933323      9.833709
  Au      3.664453      7.166103      7.107873
  Au      5.681124      6.357845      5.285005
  Au      9.436604     10.084942      6.992606
  Au      5.012478      9.039221      5.477040
  Au      8.372733      5.709879      5.352492
  Au      6.574181      4.283215      6.999630
  Au      8.637866      5.827294      8.250980
  Fe      6.083457      6.667720      7.864135
17
Coordinates from ORCA-job pbe E -3436.753233144925
  Au     10.111676      7.449133      6.512398
  Au      6.779135     10.750326      6.635387
  Au      7.131583      7.640860     10.129307
  Au      7.675726     10.196658      9.224877
  Au      9.646409      8.243534      9.152687
  Au      7.741999      8.436548      5.332309
  Au      5.233719      9.202647      8.372531
  Au      6.453847      4.933015      9.760037
  Au      4.417476      6.949921      9.836163
  Au      3.663456      7.192965      7.098675
  Au      5.688699      6.366479      5.278797
  Au      9.425193     10.072183      6.997371
  Au      5.022725      9.025269      5.487008
  Au      8.359388      5.719569      5.362968
  Au      6.600908      4.282721      6.989190
  Au      8.643073      5.824931      8.245425
  Fe      6.096580      6.681215      7.855328
17
Coordinates from ORCA-job pbe E -3436.753947155045
  Au     10.107991      7.453649      6.512316
  Au      6.784170     10.746870      6.634861
  Au      7.131034      7.640195     10.144961
  Au      7.669262     10.180231      9.220719
  Au      9.628917      8.236886      9.149858
  Au      7.737991      8.432670      5.339959
  Au      5.224560      9.214078      8.371206
  Au      6.465535      4.942392      9.758693
  Au      4.426566      6.961458      9.835280
  Au      3.653324      7.210575      7.098708
  Au      5.683756      6.362207      5.265835
  Au      9.421797     10.067316      7.004799
  Au      5.021939      9.018718      5.490835
  Au      8.353107      5.718974      5.366796
  Au      6.619211      4.272913      6.987874
  Au      8.654653      5.816090      8.242948
  Fe      6.107777      6.692752      7.844810
17
Coordinates from ORCA-job pbe E -3436.754602448020
  Au     10.110402      7.454891      6.506941
  Au      6.785442     10.749271      6.629420
  Au      7.126204      7.635103     10.168297
  Au      7.660964     10.174990      9.218351
  Au      9.623018      8.228666      9.148167
  Au      7.734039      8.428818      5.347760
  Au      5.212293      9.230209      8.371106
  Au      6.467107      4.947332      9.753001
  Au      4.431275      6.963341      9.829694
  Au      3.645780      7.225355      7.101276
  Au      5.674487      6.353142      5.257315
  Au      9.426651     10.071608      7.005437
  Au      5.021676      9.014024      5.496806
  Au      8.348606      5.718594      5.372404
  Au      6.634360      4.265345      6.989294
  Au      8.671130      5.803834      8.241454
  Fe      6.118156      6.703452      7.833735
17
Coordinates from ORCA-job pbe E -3436.755133004160
  Au     10.116378      7.459880      6.502603
  Au      6.790551     10.755698      6.624993
  Au      7.126650      7.635704     10.182103
  Au      7.658427     10.166706      9.216860
  Au      9.614277      8.225711      9.147050
  Au      7.732510      8.427085      5.354406
  Au      5.202528      9.242774      8.372784
  Au      6.464465      4.950396      9.743987
  Au      4.433810      6.960878      9.820543
  Au      3.641150      7.230030      7.107147
  Au      5.660607      6.339026      5.253745
  Au      9.434022     10.078540      7.008782
  Au      5.020623      9.010794      5.500051
  Au      8.345494      5.717767      5.375455
  Au      6.639627      4.260559      6.994604
  Au      8.683876      5.794213      8.241984
  Fe      6.126597      6.712211      7.823360
17
Coordinates from ORCA-job pbe E -3436.755600018419
  Au     10.120885      7.464227      6.498711
  Au      6.794847     10.760339      6.621004
  Au      7.121990      7.631257     10.191141
  Au      7.653438     10.162819      9.212661
  Au      9.610055      8.220635      9.142957
  Au      7.730856      8.425144      5.364191
  Au      5.195722      9.252565      8.374519
  Au      6.461307      4.954903      9.734183
  Au      4.437698      6.957953      9.810387
  Au      3.641270      7.229034      7.112872
  Au      5.648436      6.326552      5.255539
  Au      9.441512     10.086098      7.010817
  Au      5.023886      9.006386      5.504868
  Au      8.341248      5.720876      5.380123
  Au      6.638920      4.260319      7.000204
  Au      8.693750      5.787147      8.242888
  Fe      6.135769      6.721720      7.813394
17
Coordinates from ORCA-job pbe E -3436.756045164286
  Au     10.124165      7.468074      6.495658
  Au      6.798637     10.763910      6.617756
  Au      7.122029      7.631786     10.193087
  Au      7.651298     10.158626      9.209601
  Au      9.605614      8.218179      9.139872
  Au      7.729454      8.423285      5.375074
  Au      5.190688      9.257905      8.376114
  Au      6.457973      4.956891      9.726292
  Au      4.439074      6.954613      9.802105
  Au      3.643896      7.223260      7.116417
  Au      5.636973      6.314794      5.259197
  Au      9.448920     10.093465      7.014079
  Au      5.028411      9.001246      5.509374
  Au      8.336268      5.725291      5.384673
  Au      6.633424      4.262706      7.003958
  Au      8.699114      5.781942      8.243914
  Fe      6.145650      6.732003      7.803288
17
Coordinates from ORCA-job pbe E -3436.756490510642
  Au     10.126433      7.471757      6.494405
  Au      6.802289     10.766394      6.616360
  Au      7.120815      7.631213     10.188998
  Au      7.649277     10.156386      9.205472
  Au      9.603119      8.215968      9.135648
  Au      7.729132      8.422418      5.387502
  Au      5.187913      9.259696      8.377677
  Au      6.455333      4.960055      9.721968
  Au      4.441765      6.951830      9.797309
  Au      3.647133      7.213208      7.118120
  Au      5.626584      6.304226      5.261897
  Au      9.455292     10.099875      7.017900
  Au      5.033443      8.996579      5.513782
  Au      8.331740      5.730111      5.389102
  Au      6.623545      4.265757      7.006152
  Au      8.700928      5.778840      8.245190
  Fe      6.156852      6.743661      7.792976
17
Coordinates from ORCA-job pbe E -3436.756936447522
  Au     10.127600      7.473445      6.494064
  Au      6.803968     10.767751      6.615967
  Au      7.121788      7.632887     10.181839
  Au      7.648773     10.156363      9.203099
  Au      9.602877      8.215244      9.133149
  Au      7.728579      8.421296      5.400320
  Au      5.185887      9.257773      8.379172
  Au      6.453196      4.962325      9.719702
  Au      4.443664      6.949491      9.794600
  Au      3.650566      7.201955      7.118144
  Au      5.618336      6.296010      5.261312
  Au      9.460798     10.105372      7.021478
  Au      5.037645      8.991246      5.518259
  Au      8.326526      5.734042      5.393613
  Au      6.612453      4.269152      7.006812
  Au      8.699118      5.776469      8.246621
  Fe      6.169818      6.757151      7.782305
17
Coordinates from ORCA-job pbe E -3436.757381330492
  Au     10.128068      7.473804      6.495077
  Au      6.804380     10.768366      6.617064
  Au      7.123063      7.634799     10.174391
  Au      7.648929     10.158363      9.201373
  Au      9.604654      8.215204      9.131262
  Au      7.728229      8.420373      5.413166
  Au      5.184611      9.255167      8.380729
  Au      6.450560      4.965314      9.718636
  Au      4.446350      6.946721      9.793023
  Au      3.652514      7.190236      7.118083
  Au      5.611769      6.289678      5.255798
  Au      9.464365     10.108852      7.024513
  Au      5.039833      8.986605      5.522587
  Au      8.321974      5.735973      5.397883
  Au      6.600973      4.271157      7.007432
  Au      8.696759      5.774879      8.248197
  Fe      6.184562      6.772483      7.771245
17
Coordinates from ORCA-job pbe E -3436.757818868994
  Au     10.128409      7.471903      6.496426
  Au      6.802552     10.768745      6.618689
  Au      7.125404      7.637569     10.169934
  Au      7.649694     10.161500      9.201987
  Au      9.607622      8.215793      9.131762
  Au      7.726826      8.418468      5.424953
  Au      5.182620      9.253347      8.382600
  Au      6.448065      4.969017      9.715428
  Au      4.449698      6.944307      9.789312
  Au      3.653981      7.180101      7.118629
  Au      5.606952      6.285202      5.246953
  Au      9.466277     10.110689      7.026481
  Au      5.039300      8.981533      5.527018
  Au      8.316978      5.735151      5.402162
  Au      6.591129      4.272723      7.008636
  Au      8.695268      5.772545      8.250044
  Fe      6.200816      6.789383      7.759444
17
Coordinates from ORCA-job pbe E -3436.758242932352
  Au     10.128393      7.468588      6.498399
  Au      6.799339     10.768745      6.621050
  Au      7.127682      7.640086     10.168806
  Au      7.650916     10.165461      9.203550
  Au      9.611477      8.216774      9.133090
  Au      7.724854      8.415981      5.436206
  Au      5.180532      9.254244      8.385271
  Au      6.444614      4.973714      9.710623
  Au      4.454024      6.941099      9.783991
  Au      3.655458      7.170178      7.119110
  Au      5.603292      6.281896      5.236150
  Au      9.465534     10.109806      7.027098
  Au      5.036156      8.977189      5.531425
  Au      8.312733      5.731824      5.406355
  Au      6.581513      4.274330      7.009936
  Au      8.696576      5.770265      8.252559
  Fe      6.218498      6.807795      7.746839
17
Coordinates from ORCA-job pbe E -3436.758633222083
  Au     10.128472      7.464230      6.499996
  Au      6.795045     10.768625      6.623125
  Au      7.129883      7.642326     10.170111
  Au      7.651756     10.167914      9.206255
  Au      9.613880      8.217465      9.135673
  Au      7.721763      8.412483      5.446443
  Au      5.177748      9.256993      8.389159
  Au      6.443332      4.978542      9.701760
  Au      4.458265      6.940220      9.774699
  Au      3.658757      7.160493      7.120939
  Au      5.600422      6.279245      5.227064
  Au      9.463502     10.107800      7.026897
  Au      5.032040      8.972643      5.535962
  Au      8.308257      5.727406      5.410614
  Au      6.572090      4.277626      7.012588
  Au      8.699644      5.767128      8.256179
  Fe      6.236734      6.826834      7.732993
17
Coordinates from ORCA-job pbe E -3436.758982316179
  Au     10.127660      7.457947      6.502474
  Au      6.788885     10.767643      6.626191
  Au      7.131381      7.643806     10.172577
  Au      7.653387     10.171169      9.209614
  Au      9.617164      8.218812      9.138631
  Au      7.717975      8.408172      5.456472
  Au      5.175445      9.261915      8.393966
  Au      6.440536      4.985219      9.696241
  Au      4.464624      6.937740      9.768760
  Au      3.663734      7.149700      7.118454
  Au      5.598987      6.278047      5.216730
  Au      9.458015     10.102220      7.025539
  Au      5.025452      8.969523      5.540002
  Au      8.305275      5.720724      5.414394
  Au      6.561353      4.282720      7.011438
  Au      8.704928      5.764779      8.260547
  Fe      6.256789      6.847837      7.718427
17
Coordinates from ORCA-job pbe E -3436.759258144721
  Au     10.127441      7.454510      6.503814
  Au      6.785519     10.767120      6.627945
  Au      7.132734      7.645130     10.173934
  Au      7.654025     10.171135      9.210915
  Au      9.617093      8.219237      9.139754
  Au      7.714389      8.404170      5.466262
  Au      5.172408      9.266083      8.399901
  Au      6.442191      4.986745      9.684191
  Au      4.465155      6.939759      9.756299
  Au      3.670277      7.137797      7.123012
  Au      5.596658      6.275683      5.211297
  Au      9.455036     10.099297      7.024560
  Au      5.022242      8.966064      5.544486
  Au      8.301902      5.717265      5.418642
  Au      6.549834      4.289045      7.016797
  Au      8.709254      5.761449      8.266027
  Fe      6.275433      6.867484      7.702621
17
Coordinates from ORCA-job pbe E -3436.759490805577
  Au     10.126847      7.447350      6.506183
  Au      6.778399     10.765880      6.631016
  Au      7.133077      7.645407     10.174188
  Au      7.654842     10.172051      9.214472
  Au      9.618054      8.219978      9.143041
  Au      7.709515      8.398920      5.475037
  Au      5.169507      9.270190      8.405638
  Au      6.441437      4.994250      9.681323
  Au      4.472431      6.939254      9.753076
  Au      3.678742      7.125430      7.119486
  Au      5.596333      6.275494      5.201886
  Au      9.449054     10.093501      7.022735
  Au      5.015720      8.964424      5.548371
  Au      8.300417      5.710425      5.422148
  Au      6.537278      4.297488      7.014705
  Au      8.713488      5.758260      8.271239
  Fe      6.296448      6.889672      7.685915
17
Coordinates from ORCA-job pbe E -3436.759631840986
  Au     10.126130      7.444020      6.508459
  Au      6.775258     10.765101      6.633710
  Au      7.133679      7.646125     10.174527
  Au      7.656616     10.173734      9.214202
  Au      9.619654      8.221187      9.142071
  Au      7.705623      8.394367      5.484690
  Au      5.166044      9.274007      8.412090
  Au      6.439412      4.994521      9.676492
  Au      4.472297      6.937378      9.748058
  Au      3.687762      7.111714      7.119648
  Au      5.595105      6.274235      5.193933
  Au      9.445368     10.089565      7.020336
  Au      5.011101      8.962939      5.552974
  Au      8.299365      5.705980      5.426715
  Au      6.523817      4.306451      7.016369
  Au      8.717455      5.755219      8.276916
  Fe      6.316906      6.911432      7.669268
17
Coordinates from ORCA-job pbe E -3436.759693372187
  Au     10.127054      7.439830      6.509803
  Au      6.770954     10.764810      6.635724
  Au      7.132397      7.644725     10.171578
  Au      7.654564     10.171249      9.215348
  Au      9.617061      8.219288      9.143397
  Au      7.701020      8.389781      5.491060
  Au      5.161519      9.275442      8.417322
  Au      6.439400      5.001629      9.677355
  Au      4.478522      6.937480      9.747803
  Au      3.697236      7.098594      7.120392
  Au      5.594294      6.273377      5.183607
  Au      9.444051     10.088733      7.018938
  Au      5.006997      8.963080      5.557781
  Au      8.299609      5.701145      5.430664
  Au      6.510947      4.315784      7.017140
  Au      8.718514      5.749743      8.281859
  Fe      6.337452      6.933285      7.650686
17
Coordinates from ORCA-job pbe E -3436.759709884649
  Au     10.126605      7.442174      6.509525
  Au      6.773610     10.765155      6.635268
  Au      7.132387      7.645631     10.172425
  Au      7.655397     10.172439      9.212908
  Au      9.618098      8.219595      9.140411
  Au      7.701830      8.390215      5.491013
  Au      5.159980      9.274300      8.417253
  Au      6.437842      4.997143      9.679006
  Au      4.474868      6.935969      9.750339
  Au      3.698246      7.097425      7.119156
  Au      5.594139      6.273698      5.183684
  Au      9.446314     10.090392      7.018713
  Au      5.007558      8.962198      5.558823
  Au      8.299467      5.702479      5.431982
  Au      6.509956      4.316718      7.016935
  Au      8.717634      5.749043      8.281424
  Fe      6.337660      6.933399      7.651591
17
Coordinates from ORCA-job pbe E -3436.759725046194
  Au     10.126853      7.444034      6.508826
  Au      6.775421     10.764987      6.634294
  Au      7.131594      7.645564     10.172700
  Au      7.653225     10.170935      9.210644
  Au      9.616137      8.217715      9.138505
  Au      7.702136      8.390832      5.490028
  Au      5.157862      9.273222      8.417379
  Au      6.438330      4.995365      9.681333
  Au      4.473639      6.936131      9.753201
  Au      3.700728      7.094311      7.119571
  Au      5.594157      6.274150      5.181562
  Au      9.449294     10.093475      7.018823
  Au      5.008365      8.962075      5.560500
  Au      8.299202      5.702731      5.433341
  Au      6.506769      4.318937      7.017563
  Au      8.716470      5.746548      8.281399
  Fe      6.341406      6.936963      7.650789
17
Coordinates from ORCA-job pbe E -3436.759741694126
  Au     10.126001      7.447328      6.507202
  Au      6.779134     10.765025      6.632136
  Au      7.129459      7.644471     10.174206
  Au      7.650395     10.167295      9.206889
  Au      9.611456      8.214082      9.134721
  Au      7.703979      8.392401      5.486457
  Au      5.153444      9.271626      8.416609
  Au      6.438464      4.994980      9.685736
  Au      4.473021      6.935083      9.757512
  Au      3.704572      7.088896      7.121550
  Au      5.595297      6.275369      5.178669
  Au      9.454885     10.098327      7.019582
  Au      5.009378      8.962299      5.562770
  Au      8.299382      5.704207      5.435617
  Au      6.501792      4.322669      7.019202
  Au      8.714860      5.742726      8.280162
  Fe      6.346074      6.941191      7.651436
17
Coordinates from ORCA-job pbe E -3436.759749632642
  Au     10.125927      7.448722      6.506117
  Au      6.780076     10.763537      6.631163
  Au      7.128868      7.644126     10.176558
  Au      7.647764     10.164814      9.204803
  Au      9.608515      8.212735      9.133686
  Au      7.704660      8.393785      5.482904
  Au      5.151647      9.271264      8.415962
  Au      6.438151      4.995752      9.687540
  Au      4.473673      6.934778      9.759112
  Au      3.707963      7.085757      7.122691
  Au      5.597177      6.277531      5.177162
  Au      9.456616     10.101050      7.020017
  Au      5.009961      8.962407      5.564468
  Au      8.299269      5.703563      5.436224
  Au      6.497491      4.325263      7.020098
  Au      8.714828      5.739282      8.279487
  Fe      6.349005      6.943610      7.652464
17
Coordinates from ORCA-job pbe E -3436.759758448272
  Au     10.123785      7.448649      6.505556
  Au      6.780322     10.762495      6.630292
  Au      7.128491      7.644215     10.180770
  Au      7.645988     10.162214      9.204224
  Au      9.605329      8.209898      9.132447
  Au      7.705917      8.394785      5.477369
  Au      5.148558      9.271647      8.415808
  Au      6.439214      4.997956      9.688568
  Au      4.474825      6.934887      9.760058
  Au      3.711779      7.080407      7.123347
  Au      5.601176      6.281317      5.175319
  Au      9.457766     10.101473      7.020183
  Au      5.008427      8.962721      5.565171
  Au      8.299555      5.702743      5.437310
  Au      6.492524      4.329306      7.020918
  Au      8.715496      5.736684      8.278767
  Fe      6.352440      6.946576      7.654348
17
Coordinates from ORCA-job pbe E -3436.759765965881
  Au     10.122011      7.447926      6.505675
  Au      6.779377     10.760217      6.630597
  Au      7.128933      7.644771     10.185766
  Au      7.645166     10.161367      9.204186
  Au      9.604162      8.209412      9.132518
  Au      7.706442      8.395779      5.472064
  Au      5.147391      9.272641      8.415822
  Au      6.440109      4.999588      9.688301
  Au      4.475801      6.935831      9.759715
  Au      3.715103      7.075940      7.122715
  Au      5.605482      6.285741      5.174253
  Au      9.455507     10.099756      7.019832
  Au      5.006583      8.963599      5.565522
  Au      8.300360      5.700440      5.437274
  Au      6.487388      4.332330      7.020620
  Au      8.717145      5.734440      8.278533
  Fe      6.354630      6.948197      7.657062
17
Coordinates from ORCA-job pbe E -3436.759769556724
  Au     10.120799      7.446568      6.506265
  Au      6.778053     10.759364      6.631331
  Au      7.129701      7.645777     10.188649
  Au      7.645507     10.161784      9.205528
  Au      9.604390      8.209208      9.133390
  Au      7.705922      8.395290      5.469389
  Au      5.147029      9.273708      8.416062
  Au      6.441336      5.000269      9.687123
  Au      4.476156      6.937079      9.758649
  Au      3.716748      7.073618      7.121207
  Au      5.607667      6.287966      5.174204
  Au      9.453115     10.097226      7.019235
  Au      5.004680      8.964132      5.565240
  Au      8.301009      5.698873      5.437212
  Au      6.485148      4.334054      7.019616
  Au      8.718579      5.733999      8.278584
  Fe      6.355750      6.949060      7.658776
