11
Coordinates from ORCA-job pbe E -2402.474849701423
  Au      8.868064      8.940609      9.100760
  Au      8.575592      6.922102      6.881623
  Au      9.754670      4.777299      7.887072
  Au     10.749427      5.393564     10.493983
  Au      9.403313      7.790765     11.467198
  Au      7.174946      9.238906      6.906111
  Au      6.307869      7.396403      8.809867
  Au      6.682911      6.150171     11.158365
  Au      8.836421      5.385958     12.746274
  Au      8.335135      3.936882     10.219839
  Cr      8.585097      6.418109      9.473405
11
Coordinates from ORCA-job pbe E -2402.477451968501
  Au      8.845764      8.977109      9.117982
  Au      8.581143      6.918156      6.857766
  Au      9.767745      4.759874      7.855501
  Au     10.742669      5.366763     10.505924
  Au      9.416255      7.795449     11.489503
  Au      7.185275      9.228256      6.869490
  Au      6.283340      7.431071      8.826093
  Au      6.669826      6.139360     11.177691
  Au      8.837754      5.385362     12.733088
  Au      8.360402      3.928652     10.235285
  Cr      8.583271      6.420717      9.476174
11
Coordinates from ORCA-job pbe E -2402.479284155693
  Au      8.801437      9.010602      9.146082
  Au      8.596981      6.896071      6.841956
  Au      9.779084      4.745437      7.816653
  Au     10.733566      5.329614     10.515221
  Au      9.431856      7.820601     11.489343
  Au      7.208237      9.188125      6.881735
  Au      6.269310      7.482082      8.857046
  Au      6.641453      6.138524     11.172279
  Au      8.833389      5.396729     12.703594
  Au      8.397061      3.917593     10.249701
  Cr      8.581070      6.425390      9.470885
11
Coordinates from ORCA-job pbe E -2402.480172120859
  Au      8.757593      9.039753      9.190140
  Au      8.618593      6.865225      6.821418
  Au      9.797194      4.711781      7.814651
  Au     10.738684      5.302627     10.516749
  Au      9.446469      7.840433     11.482426
  Au      7.211171      9.186610      6.870625
  Au      6.255619      7.529694      8.904667
  Au      6.618827      6.136640     11.161011
  Au      8.826499      5.412873     12.666055
  Au      8.421344      3.899304     10.253355
  Cr      8.581448      6.425828      9.463400
11
Coordinates from ORCA-job pbe E -2402.480800963587
  Au      8.703501      9.062157      9.217553
  Au      8.626011      6.853568      6.818661
  Au      9.806849      4.689134      7.831900
  Au     10.753872      5.300338     10.502695
  Au      9.458352      7.849434     11.482396
  Au      7.238934      9.142446      6.869882
  Au      6.255148      7.585804      8.938549
  Au      6.605217      6.130790     11.158322
  Au      8.823913      5.421303     12.632346
  Au      8.422567      3.885080     10.237573
  Cr      8.579079      6.430714      9.454620
11
Coordinates from ORCA-job pbe E -2402.481148622082
  Au      8.675127      9.078461      9.234965
  Au      8.641672      6.824634      6.830893
  Au      9.804868      4.685735      7.856719
  Au     10.759710      5.306613     10.488812
  Au      9.469239      7.851816     11.481473
  Au      7.249514      9.127343      6.858098
  Au      6.250803      7.618624      8.959166
  Au      6.597348      6.122936     11.155392
  Au      8.828700      5.415820     12.606699
  Au      8.420497      3.882838     10.222612
  Cr      8.575966      6.435949      9.449670
11
Coordinates from ORCA-job pbe E -2402.481319965732
  Au      8.673912      9.084812      9.240774
  Au      8.645412      6.816183      6.836005
  Au      9.810057      4.671133      7.886128
  Au     10.761671      5.321419     10.481606
  Au      9.473594      7.853008     11.475501
  Au      7.249078      9.128266      6.860795
  Au      6.244951      7.623453      8.965179
  Au      6.594077      6.121249     11.148548
  Au      8.836643      5.403676     12.590406
  Au      8.410813      3.887218     10.214555
  Cr      8.573236      6.440350      9.445000
11
Coordinates from ORCA-job pbe E -2402.481409903100
  Au      8.674060      9.088606      9.242120
  Au      8.647671      6.809901      6.839159
  Au      9.813675      4.665552      7.891709
  Au     10.762456      5.335660     10.482264
  Au      9.479337      7.851734     11.472294
  Au      7.250508      9.126484      6.863258
  Au      6.241329      7.626127      8.966420
  Au      6.592275      6.116751     11.144932
  Au      8.842360      5.393363     12.584991
  Au      8.399706      3.891664     10.215075
  Cr      8.570066      6.444927      9.442276
11
Coordinates from ORCA-job pbe E -2402.481519467641
  Au      8.674783      9.097367      9.247694
  Au      8.651229      6.800400      6.840262
  Au      9.819090      4.657764      7.899526
  Au     10.756147      5.353500     10.479814
  Au      9.491788      7.847308     11.469814
  Au      7.258073      9.115183      6.866208
  Au      6.232159      7.631123      8.971635
  Au      6.589352      6.105960     11.141301
  Au      8.848082      5.382029     12.577130
  Au      8.390841      3.903340     10.214122
  Cr      8.561898      6.456794      9.436992
11
Coordinates from ORCA-job pbe E -2402.481627407459
  Au      8.672850      9.105908      9.254301
  Au      8.658427      6.787458      6.832598
  Au      9.826830      4.647244      7.902585
  Au     10.752341      5.369140     10.476055
  Au      9.508212      7.843428     11.466805
  Au      7.263037      9.106429      6.876213
  Au      6.223793      7.638542      8.977814
  Au      6.584337      6.092220     11.136695
  Au      8.848330      5.378061     12.581802
  Au      8.382791      3.912024     10.211464
  Cr      8.552494      6.470311      9.428165
11
Coordinates from ORCA-job pbe E -2402.481726963567
  Au      8.672571      9.113761      9.266646
  Au      8.667021      6.776271      6.819808
  Au      9.830469      4.643486      7.903262
  Au     10.742978      5.375512     10.469928
  Au      9.522843      7.837997     11.465252
  Au      7.271916      9.091109      6.882129
  Au      6.213664      7.642582      8.989261
  Au      6.582108      6.078867     11.133997
  Au      8.844602      5.382158     12.587326
  Au      8.383749      3.922916     10.207901
  Cr      8.541521      6.486108      9.418987
11
Coordinates from ORCA-job pbe E -2402.481779758476
  Au      8.668245      9.117217      9.274029
  Au      8.676103      6.768942      6.804453
  Au      9.832280      4.640696      7.902714
  Au     10.738427      5.372271     10.467270
  Au      9.528776      7.834469     11.464563
  Au      7.273563      9.085257      6.891808
  Au      6.210086      7.646661      8.996789
  Au      6.583536      6.072462     11.133137
  Au      8.838689      5.392350     12.592534
  Au      8.387189      3.926876     10.206671
  Cr      8.536549      6.493566      9.410528
11
Coordinates from ORCA-job pbe E -2402.481808576877
  Au      8.666670      9.117904      9.278514
  Au      8.680379      6.769207      6.795466
  Au      9.829752      4.644394      7.901460
  Au     10.737742      5.368363     10.467021
  Au      9.527335      7.833208     11.465088
  Au      7.275374      9.080761      6.889670
  Au      6.208586      7.646741      9.001377
  Au      6.586424      6.072495     11.134628
  Au      8.838061      5.394550     12.599046
  Au      8.387927      3.927203     10.206289
  Cr      8.535194      6.495940      9.405939
11
Coordinates from ORCA-job pbe E -2402.481864120281
  Au      8.662956      9.119324      9.282961
  Au      8.689150      6.769012      6.779902
  Au      9.826660      4.647633      7.904364
  Au     10.735826      5.365164     10.469219
  Au      9.521627      7.828242     11.464484
  Au      7.275543      9.076125      6.891831
  Au      6.206741      7.647937      9.006726
  Au      6.595611      6.074145     11.137146
  Au      8.839765      5.394973     12.605564
  Au      8.385384      3.929635     10.207487
  Cr      8.534181      6.498577      9.394814
11
Coordinates from ORCA-job pbe E -2402.482001026748
  Au      8.655152      9.125155      9.291373
  Au      8.711265      6.768962      6.742532
  Au      9.820357      4.655101      7.912388
  Au     10.728397      5.362146     10.476779
  Au      9.501792      7.813696     11.462315
  Au      7.276547      9.062440      6.896790
  Au      6.200046      7.650565      9.018638
  Au      6.622987      6.082990     11.144697
  Au      8.850575      5.384059     12.625493
  Au      8.374488      3.939310     10.211553
  Cr      8.531838      6.506343      9.361941
11
Coordinates from ORCA-job pbe E -2402.482183346609
  Au      8.645264      9.135033      9.301558
  Au      8.737464      6.765413      6.699949
  Au      9.817636      4.659178      7.920501
  Au     10.715906      5.364693     10.486453
  Au      9.470595      7.792729     11.459411
  Au      7.279251      9.042781      6.903533
  Au      6.190347      7.658117      9.033962
  Au      6.661398      6.098833     11.155998
  Au      8.867412      5.361919     12.650422
  Au      8.359583      3.954623     10.215937
  Cr      8.528589      6.517448      9.316773
11
Coordinates from ORCA-job pbe E -2402.482449269938
  Au      8.637240      9.147030      9.309001
  Au      8.755506      6.756853      6.668219
  Au      9.821930      4.656404      7.924591
  Au     10.703038      5.373109     10.494629
  Au      9.431525      7.771701     11.458507
  Au      7.283714      9.024346      6.909642
  Au      6.180889      7.669576      9.048574
  Au      6.699796      6.122529     11.168497
  Au      8.884849      5.332463     12.672177
  Au      8.348117      3.969452     10.217621
  Cr      8.526839      6.527305      9.273039
11
Coordinates from ORCA-job pbe E -2402.482832498330
  Au      8.635119      9.162157      9.313658
  Au      8.758756      6.739451      6.658845
  Au      9.840099      4.638825      7.922310
  Au     10.690464      5.391795     10.496127
  Au      9.383956      7.753878     11.461085
  Au      7.291482      9.009656      6.914784
  Au      6.170056      7.687768      9.059741
  Au      6.731617      6.154833     11.183284
  Au      8.902142      5.295821     12.684995
  Au      8.343913      3.981556     10.212886
  Cr      8.525839      6.535027      9.236781
11
Coordinates from ORCA-job pbe E -2402.483041187371
  Au      8.625540      9.177811      9.327233
  Au      8.769229      6.716385      6.638248
  Au      9.858131      4.624227      7.922567
  Au     10.677452      5.410038     10.488651
  Au      9.342204      7.735265     11.467443
  Au      7.304510      8.982815      6.918677
  Au      6.160949      7.706388      9.082140
  Au      6.763604      6.184039     11.196851
  Au      8.915769      5.262840     12.699459
  Au      8.335180      4.000016     10.204281
  Cr      8.520876      6.550943      9.198948
11
Coordinates from ORCA-job pbe E -2402.483145375567
  Au      8.625057      9.184097      9.336825
  Au      8.761350      6.693153      6.648218
  Au      9.876259      4.603880      7.921484
  Au     10.680696      5.428964     10.468953
  Au      9.332552      7.743812     11.478467
  Au      7.317153      8.973486      6.918098
  Au      6.156954      7.722986      9.088971
  Au      6.751534      6.192298     11.204291
  Au      8.918233      5.250494     12.686926
  Au      8.337816      4.001487     10.188680
  Cr      8.515840      6.556112      9.203583
11
Coordinates from ORCA-job pbe E -2402.483280969157
  Au      8.621371      9.187708      9.353864
  Au      8.778112      6.674649      6.615052
  Au      9.878281      4.603039      7.920443
  Au     10.672237      5.442012     10.459650
  Au      9.306526      7.733835     11.487641
  Au      7.331537      8.948612      6.924692
  Au      6.150458      7.729076      9.105449
  Au      6.770933      6.206603     11.217489
  Au      8.927345      5.237393     12.696072
  Au      8.329509      4.018365     10.182282
  Cr      8.507134      6.569476      9.181862
11
Coordinates from ORCA-job pbe E -2402.483359871323
  Au      8.620198      9.189437      9.358398
  Au      8.783824      6.662683      6.604630
  Au      9.874306      4.605541      7.919724
  Au     10.676514      5.449812     10.450265
  Au      9.310408      7.737538     11.500842
  Au      7.339890      8.937013      6.929054
  Au      6.149953      7.723500      9.111108
  Au      6.763648      6.207383     11.219776
  Au      8.926417      5.238755     12.685038
  Au      8.322932      4.025329     10.175477
  Cr      8.505355      6.573775      9.190183
11
Coordinates from ORCA-job pbe E -2402.483379557500
  Au      8.621502      9.188195      9.364913
  Au      8.788380      6.656787      6.599771
  Au      9.869916      4.603787      7.921039
  Au     10.677163      5.460788     10.447609
  Au      9.301167      7.738636     11.502890
  Au      7.346417      8.929940      6.932267
  Au      6.147194      7.729564      9.108831
  Au      6.765143      6.209423     11.226624
  Au      8.933567      5.234080     12.678964
  Au      8.320765      4.027045     10.172075
  Cr      8.502230      6.572523      9.189513
11
Coordinates from ORCA-job pbe E -2402.483388199876
  Au      8.621808      9.191842      9.363522
  Au      8.787672      6.655541      6.599837
  Au      9.871304      4.602585      7.921480
  Au     10.676045      5.461725     10.447480
  Au      9.299606      7.738445     11.504442
  Au      7.347107      8.927743      6.933964
  Au      6.145731      7.727205      9.109201
  Au      6.766391      6.213136     11.226242
  Au      8.934800      5.229100     12.678108
  Au      8.319163      4.029677     10.171726
  Cr      8.503817      6.573770      9.188494
11
Coordinates from ORCA-job pbe E -2402.483390685646
  Au      8.618344      9.194164      9.365437
  Au      8.789841      6.655106      6.598705
  Au      9.871215      4.600803      7.922598
  Au     10.675298      5.462656     10.447507
  Au      9.302729      7.738961     11.503159
  Au      7.348534      8.925430      6.935154
  Au      6.144834      7.728020      9.110514
  Au      6.765871      6.211831     11.224902
  Au      8.935980      5.227899     12.677295
  Au      8.316911      4.030976     10.172258
  Cr      8.503888      6.574922      9.186967
11
Coordinates from ORCA-job pbe E -2402.483391950002
  Au      8.617435      9.195463      9.366982
  Au      8.791198      6.654736      6.597243
  Au      9.870614      4.599887      7.922189
  Au     10.674992      5.462947     10.447213
  Au      9.302329      7.739370     11.503343
  Au      7.349214      8.924376      6.935830
  Au      6.143952      7.727296      9.110550
  Au      6.766620      6.212577     11.225358
  Au      8.936677      5.227401     12.677518
  Au      8.315775      4.031615     10.172234
  Cr      8.504639      6.575100      9.186037
