16
E=  -1708.44819194;c=0;m=6
Au      8.466444464697240      9.321281293657490     10.130079782795089
Au      7.689428558747910      6.665035291507560      9.890381838703210
Au     10.252026381711930      7.513699351021710      8.836493165750911
Au     10.010317210167001      7.920884083816670      6.038918652789190
Au      6.546153169181060      4.499701806736920      8.670940615506010
Au      7.418490621697260      7.372659812229500      5.122055098286630
Au      8.138921247662591     10.037879235864059      5.606986197998450
Au      8.720077261176220      5.767968181820630      7.276978785756360
Au      6.485866399905370      4.797518887131870      5.863297978826300
Au      4.641160092792580      6.884412056074110      5.437198555015480
Au      7.225311858492910     10.938444079296319      8.137194422984431
Au      3.805434246150400      7.600822387748990      8.037954327006499
Au      5.622168047599350      9.273613693416420      6.561542363881510
Au      5.827387678376820      8.771982391153120      9.460468900927459
Au      9.934143651933841     10.148795267328429      7.831212749765220
Fe      6.187046449707590      6.792846291196100      7.614067674007220
