13
E=  -1363.35681120;c=0;m=4
Au      8.260323688030640      8.990186512778120     10.307212865819960
Au      7.262189767065170      6.956975016380960      8.844002230566680
Au      6.192302704282920      6.702625325016790      6.183522099725440
Au      8.362591978506780      5.091565108136740      6.945011332770170
Au     10.268483467611070      6.647368574157740      8.127575852691351
Au      8.865270172618450      7.529789802692890      5.498713153111670
Au     11.210098895439820      8.999864553540750      8.983103724617560
Au     11.106923543239750     11.626493404749381      7.790495452717770
Au      9.891928472392610     11.198106682099899     10.307437879831250
Au      8.257444754779749     11.200471236753760      7.927374933876490
Au     10.346612563073720      9.737799770092019      5.947541138587440
Au      6.707357110651360      9.293109771164470      6.872587530257070
Mn      8.962598802307991      8.782184112436450      7.864877755427110
