13
Coordinates from ORCA-job pbe E -2780.675615966396
  Au      8.260324      8.990187     10.307213
  Au      7.262190      6.956975      8.844002
  Au      6.192303      6.702625      6.183522
  Au      8.362592      5.091565      6.945011
  Au     10.268483      6.647369      8.127576
  Au      8.865270      7.529790      5.498713
  Au     11.210099      8.999865      8.983104
  Au     11.106924     11.626493      7.790495
  Au      9.891928     11.198107     10.307438
  Au      8.257445     11.200471      7.927375
  Au     10.346613      9.737800      5.947541
  Au      6.707357      9.293110      6.872588
  Mn      8.962599      8.782184      7.864878
13
Coordinates from ORCA-job pbe E -2780.678193374853
  Au      8.261468      8.994925     10.314053
  Au      7.264891      6.956690      8.835308
  Au      6.227172      6.696450      6.199348
  Au      8.343870      5.125275      6.941825
  Au     10.276461      6.617001      8.126125
  Au      8.860370      7.526547      5.505539
  Au     11.221514      9.021619      8.992374
  Au     11.095610     11.606205      7.780283
  Au      9.879491     11.177415     10.299223
  Au      8.270483     11.220731      7.937169
  Au     10.352239      9.744129      5.945636
  Au      6.679218      9.289362      6.858553
  Mn      8.961339      8.780191      7.864020
13
Coordinates from ORCA-job pbe E -2780.679262280750
  Au      8.255304      8.991508     10.324361
  Au      7.264907      6.960793      8.843334
  Au      6.227646      6.684792      6.198267
  Au      8.334815      5.121852      6.935885
  Au     10.311949      6.601256      8.140372
  Au      8.865977      7.532390      5.501829
  Au     11.236609      9.034996      9.001806
  Au     11.088980     11.587422      7.762305
  Au      9.863035     11.156281     10.299158
  Au      8.275248     11.241623      7.943199
  Au     10.356879      9.744067      5.934093
  Au      6.651952      9.319906      6.850949
  Mn      8.960825      8.779654      7.863899
13
Coordinates from ORCA-job pbe E -2780.679994632844
  Au      8.236352      8.967132     10.331114
  Au      7.270656      6.967026      8.840940
  Au      6.253669      6.715267      6.212826
  Au      8.348883      5.159349      6.951557
  Au     10.342260      6.593260      8.154054
  Au      8.866429      7.537309      5.509108
  Au     11.246729      9.027648      9.005162
  Au     11.080262     11.566525      7.739785
  Au      9.844496     11.130378     10.300433
  Au      8.265260     11.249381      7.939826
  Au     10.351551      9.725666      5.908821
  Au      6.633177      9.348441      6.846487
  Mn      8.954401      8.769159      7.859342
13
Coordinates from ORCA-job pbe E -2780.680711702254
  Au      8.226258      8.958652     10.336035
  Au      7.264771      6.960807      8.840576
  Au      6.248974      6.741494      6.223749
  Au      8.375371      5.170092      6.957610
  Au     10.368234      6.602712      8.166218
  Au      8.864640      7.531056      5.503443
  Au     11.248957      9.023736      9.005524
  Au     11.071851     11.543905      7.734427
  Au      9.829985     11.114058     10.288218
  Au      8.261375     11.250477      7.937737
  Au     10.353005      9.717929      5.897367
  Au      6.629846      9.378087      6.851713
  Mn      8.950860      8.763535      7.856840
13
Coordinates from ORCA-job pbe E -2780.681358551951
  Au      8.201073      8.945452     10.343105
  Au      7.247297      6.948348      8.838376
  Au      6.231389      6.783476      6.249487
  Au      8.425896      5.184449      6.957741
  Au     10.414927      6.627682      8.182170
  Au      8.863891      7.513242      5.491242
  Au     11.254570      9.013169      9.003440
  Au     11.064807     11.510033      7.736302
  Au      9.808493     11.099583     10.264377
  Au      8.249815     11.250874      7.934502
  Au     10.360244      9.698553      5.876941
  Au      6.628136      9.429976      6.870209
  Mn      8.943588      8.751704      7.851564
13
Coordinates from ORCA-job pbe E -2780.681734548641
  Au      8.196051      8.945756     10.339834
  Au      7.237291      6.942853      8.840612
  Au      6.223498      6.779022      6.238455
  Au      8.422361      5.170650      6.960500
  Au     10.407680      6.629717      8.170420
  Au      8.866314      7.505158      5.482958
  Au     11.258613      9.019351      9.002860
  Au     11.069884     11.529964      7.752419
  Au      9.825724     11.118720     10.265566
  Au      8.251859     11.255101      7.939583
  Au     10.362229      9.693020      5.878085
  Au      6.630417      9.418163      6.877772
  Mn      8.942205      8.749066      7.850394
13
Coordinates from ORCA-job pbe E -2780.682105919656
  Au      8.185119      8.942136     10.330015
  Au      7.229792      6.936559      8.838382
  Au      6.216408      6.813770      6.246467
  Au      8.455120      5.180727      6.973255
  Au     10.412527      6.620669      8.154907
  Au      8.864882      7.496421      5.478290
  Au     11.266148      9.039564      9.009439
  Au     11.059763     11.514100      7.768459
  Au      9.823219     11.115331     10.240499
  Au      8.265488     11.270949      7.948003
  Au     10.363510      9.676644      5.880778
  Au      6.616294      9.411020      6.885100
  Mn      8.935855      8.738649      7.845860
13
Coordinates from ORCA-job pbe E -2780.682645416791
  Au      8.181579      8.954252     10.323090
  Au      7.224469      6.934368      8.827606
  Au      6.217102      6.798565      6.250791
  Au      8.443444      5.179137      6.961213
  Au     10.411646      6.632192      8.141103
  Au      8.862741      7.485175      5.483357
  Au     11.272241      9.029910      9.006964
  Au     11.070312     11.525075      7.777578
  Au      9.828206     11.131868     10.243224
  Au      8.253957     11.271419      7.946120
  Au     10.372654      9.673467      5.892540
  Au      6.621268      9.404947      6.900987
  Mn      8.934509      8.736165      7.844884
13
Coordinates from ORCA-job pbe E -2780.683126808150
  Au      8.173389      8.970422     10.308514
  Au      7.225402      6.944382      8.822480
  Au      6.210643      6.784642      6.255692
  Au      8.438636      5.173399      6.947850
  Au     10.418729      6.640227      8.119078
  Au      8.867806      7.485980      5.493914
  Au     11.280944      9.019903      9.004035
  Au     11.082178     11.523893      7.782420
  Au      9.822228     11.142885     10.242385
  Au      8.240707     11.274142      7.945069
  Au     10.384900      9.663026      5.911416
  Au      6.616144      9.400419      6.922790
  Mn      8.932421      8.733221      7.843815
13
Coordinates from ORCA-job pbe E -2780.683513981528
  Au      8.159806      8.996237     10.291957
  Au      7.228167      6.954972      8.815034
  Au      6.201729      6.776349      6.261752
  Au      8.437457      5.167109      6.935743
  Au     10.432211      6.641295      8.083722
  Au      8.871746      7.486843      5.507587
  Au     11.292810      9.013057      9.001276
  Au     11.095278     11.517190      7.790257
  Au      9.811298     11.154921     10.236180
  Au      8.227640     11.279719      7.945928
  Au     10.407696      9.649700      5.936465
  Au      6.598616      9.390213      6.951091
  Mn      8.929673      8.728934      7.842466
13
Coordinates from ORCA-job pbe E -2780.683706170743
  Au      8.145413      9.015687     10.283988
  Au      7.231670      6.962619      8.814353
  Au      6.197930      6.771761      6.261679
  Au      8.438155      5.163107      6.933328
  Au     10.443100      6.638969      8.056385
  Au      8.874493      7.491930      5.514748
  Au     11.296851      9.009108      8.996288
  Au     11.101128     11.511025      7.797893
  Au      9.806066     11.161007     10.228716
  Au      8.221030     11.279533      7.948078
  Au     10.427868      9.639204      5.950241
  Au      6.581814      9.384173      6.971160
  Mn      8.928608      8.728417      7.842600
13
Coordinates from ORCA-job pbe E -2780.683904132823
  Au      8.122664      9.038482     10.279727
  Au      7.236588      6.968539      8.816492
  Au      6.198220      6.772238      6.262359
  Au      8.435858      5.162114      6.932959
  Au     10.457966      6.633526      8.025049
  Au      8.876666      7.498317      5.519662
  Au     11.298141      9.004698      8.988679
  Au     11.105189     11.508031      7.802748
  Au      9.801972     11.165592     10.224256
  Au      8.214204     11.274297      7.950384
  Au     10.457075      9.625910      5.960736
  Au      6.560216      9.374866      6.992321
  Mn      8.929366      8.729929      7.844084
13
Coordinates from ORCA-job pbe E -2780.684102317239
  Au      8.090375      9.065360     10.276222
  Au      7.239493      6.972559      8.822442
  Au      6.204174      6.768265      6.261165
  Au      8.434283      5.165203      6.936251
  Au     10.469884      6.630137      7.989551
  Au      8.878475      7.506357      5.520222
  Au     11.295224      8.999723      8.975911
  Au     11.104897     11.508480      7.808192
  Au      9.805538     11.166865     10.220811
  Au      8.208860     11.264277      7.955385
  Au     10.492477      9.607113      5.969233
  Au      6.539207      9.366708      7.016859
  Mn      8.931240      8.735491      7.847211
13
Coordinates from ORCA-job pbe E -2780.684259041285
  Au      8.055125      9.085694     10.273110
  Au      7.241486      6.972273      8.829914
  Au      6.211427      6.774163      6.262976
  Au      8.427897      5.170247      6.939201
  Au     10.485083      6.630106      7.963750
  Au      8.880014      7.510488      5.516356
  Au     11.294981      8.997829      8.964709
  Au     11.098517     11.513343      7.804259
  Au      9.809584     11.161111     10.223802
  Au      8.203492     11.254843      7.961116
  Au     10.526516      9.586257      5.972846
  Au      6.524652      9.358915      7.036420
  Mn      8.935350      8.741270      7.850995
13
Coordinates from ORCA-job pbe E -2780.684431422766
  Au      8.013457      9.107507     10.266013
  Au      7.237938      6.969216      8.836150
  Au      6.221476      6.773952      6.261724
  Au      8.430581      5.178992      6.947528
  Au     10.495574      6.635687      7.937494
  Au      8.879997      7.512525      5.509918
  Au     11.298774      8.996957      8.952139
  Au     11.086219     11.517798      7.797731
  Au      9.820542     11.146499     10.227995
  Au      8.198764     11.251727      7.971322
  Au     10.558996      9.558074      5.976642
  Au      6.513857      9.358978      7.059855
  Mn      8.937950      8.748627      7.854946
13
Coordinates from ORCA-job pbe E -2780.684697654456
  Au      7.972342      9.122695     10.254430
  Au      7.233005      6.963613      8.840882
  Au      6.229991      6.783111      6.259054
  Au      8.428527      5.185682      6.958327
  Au     10.509073      6.648013      7.919096
  Au      8.880034      7.509076      5.501997
  Au     11.310907      9.001447      8.942750
  Au     11.064953     11.522564      7.785207
  Au      9.831391     11.122948     10.232627
  Au      8.193153     11.255170      7.984147
  Au     10.586796      9.527691      5.980215
  Au      6.511850      9.359605      7.081810
  Mn      8.942103      8.754925      7.858912
13
Coordinates from ORCA-job pbe E -2780.685070144517
  Au      7.940026      9.130124     10.239949
  Au      7.225795      6.956953      8.840348
  Au      6.237422      6.791626      6.249894
  Au      8.429280      5.190358      6.974603
  Au     10.517593      6.665205      7.908884
  Au      8.878102      7.501694      5.496108
  Au     11.333038      9.009321      8.939080
  Au     11.040296     11.523512      7.766362
  Au      9.839990     11.091265     10.238609
  Au      8.187439     11.271709      7.998592
  Au     10.601773      9.499464      5.983735
  Au      6.518024      9.364962      7.101077
  Mn      8.945348      8.760346      7.862214
13
Coordinates from ORCA-job pbe E -2780.685409112857
  Au      7.908124      9.145068     10.222678
  Au      7.221689      6.955515      8.837960
  Au      6.242517      6.800253      6.239095
  Au      8.426564      5.191089      6.990371
  Au     10.528538      6.680489      7.889115
  Au      8.877792      7.496596      5.496007
  Au     11.356960      9.015383      8.932451
  Au     11.016712     11.521663      7.753055
  Au      9.846054     11.063123     10.238586
  Au      8.177691     11.286599      8.013585
  Au     10.623595      9.471888      5.995127
  Au      6.518946      9.363595      7.125921
  Mn      8.948945      8.765279      7.865503
13
Coordinates from ORCA-job pbe E -2780.685743198731
  Au      7.875114      9.162222     10.209317
  Au      7.219267      6.957538      8.834713
  Au      6.247558      6.809632      6.227919
  Au      8.428665      5.193077      7.007325
  Au     10.542601      6.689380      7.867406
  Au      8.877825      7.494879      5.499585
  Au     11.381638      9.018354      8.924891
  Au     10.993702     11.517016      7.739665
  Au      9.850224     11.034164     10.237050
  Au      8.165174     11.301488      8.027504
  Au     10.648996      9.444683      6.004902
  Au      6.511588      9.364224      7.150521
  Mn      8.951776      8.769883      7.868659
13
Coordinates from ORCA-job pbe E -2780.686084570701
  Au      7.841788      9.181619     10.198675
  Au      7.218418      6.963653      8.831465
  Au      6.252417      6.818654      6.217612
  Au      8.430306      5.195083      7.023296
  Au     10.557721      6.694257      7.844446
  Au      8.879522      7.496227      5.505989
  Au     11.404746      9.018693      8.915127
  Au     10.969104     11.511893      7.730294
  Au      9.855775     11.006301     10.231315
  Au      8.150472     11.312855      8.040481
  Au     10.678731      9.419150      6.014358
  Au      6.500049      9.363247      7.174463
  Mn      8.955077      8.774907      7.871934
13
Coordinates from ORCA-job pbe E -2780.686432777532
  Au      7.808246      9.201742     10.192638
  Au      7.218745      6.971776      8.828654
  Au      6.257732      6.826775      6.208390
  Au      8.433038      5.198441      7.037945
  Au     10.571957      6.695089      7.824318
  Au      8.881684      7.500674      5.513778
  Au     11.426466      9.016212      8.904633
  Au     10.942848     11.507129      7.721312
  Au      9.863224     10.977357     10.224715
  Au      8.134125     11.321907      8.051852
  Au     10.710706      9.395842      6.020436
  Au      6.486138      9.362182      7.195002
  Mn      8.959215      8.781414      7.875783
13
Coordinates from ORCA-job pbe E -2780.686780337028
  Au      7.774239      9.222326     10.187005
  Au      7.219576      6.979477      8.827461
  Au      6.263546      6.833298      6.200942
  Au      8.434129      5.202758      7.050614
  Au     10.583611      6.696854      7.806311
  Au      8.883742      7.506438      5.520036
  Au     11.446472      9.012698      8.893646
  Au     10.915694     11.503162      7.712766
  Au      9.872147     10.948059     10.217968
  Au      8.117665     11.328421      8.062606
  Au     10.743403      9.373479      6.025656
  Au      6.475101      9.359647      7.213996
  Mn      8.964800      8.789923      7.880450
13
Coordinates from ORCA-job pbe E -2780.687148632189
  Au      7.740806      9.238976     10.189279
  Au      7.223217      6.990598      8.826675
  Au      6.268756      6.838067      6.195162
  Au      8.435425      5.208305      7.060542
  Au     10.592389      6.694810      7.796247
  Au      8.886189      7.517484      5.528976
  Au     11.468210      9.004952      8.885104
  Au     10.886489     11.496890      7.703609
  Au      9.880961     10.915711     10.209202
  Au      8.097766     11.335107      8.069517
  Au     10.775488      9.355575      6.021724
  Au      6.464686      9.356805      7.226336
  Mn      8.973743      8.803259      7.887083
13
Coordinates from ORCA-job pbe E -2780.687543330283
  Au      7.706367      9.259545     10.184014
  Au      7.226722      6.996339      8.827228
  Au      6.274235      6.840684      6.190232
  Au      8.434209      5.213603      7.068777
  Au     10.597509      6.700067      7.782249
  Au      8.885825      7.526168      5.533994
  Au     11.489675      8.999351      8.875031
  Au     10.860012     11.490686      7.694562
  Au      9.888297     10.885570     10.201987
  Au      8.079720     11.341623      8.079099
  Au     10.807470      9.334284      6.025154
  Au      6.460778      9.350794      7.242698
  Mn      8.983305      8.817826      7.894428
13
Coordinates from ORCA-job pbe E -2780.688047125130
  Au      7.676213      9.268164     10.186819
  Au      7.235539      7.000306      8.828166
  Au      6.275218      6.834769      6.190618
  Au      8.429336      5.218003      7.066400
  Au     10.586392      6.710474      7.783062
  Au      8.881096      7.539607      5.539681
  Au     11.514535      8.988844      8.871202
  Au     10.839798     11.481298      7.687132
  Au      9.891173     10.860161     10.194042
  Au      8.058787     11.350294      8.082295
  Au     10.830707      9.319433      6.015581
  Au      6.473592      9.339269      7.247201
  Mn      9.001742      8.845917      7.907256
13
Coordinates from ORCA-job pbe E -2780.688618053970
  Au      7.647319      9.275815     10.180630
  Au      7.245461      6.998335      8.826457
  Au      6.273510      6.830927      6.188611
  Au      8.427170      5.218802      7.066546
  Au     10.575459      6.725699      7.782080
  Au      8.870543      7.548707      5.544072
  Au     11.544080      8.985165      8.868847
  Au     10.820354     11.469801      7.677714
  Au      9.890631     10.833412     10.187160
  Au      8.040858     11.366723      8.090104
  Au     10.849425      9.299017      6.013399
  Au      6.489950      9.330388      7.254034
  Mn      9.019366      8.873750      7.919802
13
Coordinates from ORCA-job pbe E -2780.689292035131
  Au      7.626608      9.275604     10.170450
  Au      7.260209      6.993370      8.820338
  Au      6.265112      6.824550      6.187065
  Au      8.426507      5.212662      7.062232
  Au     10.558889      6.742064      7.786672
  Au      8.854432      7.556552      5.551656
  Au     11.577072      8.986292      8.872574
  Au     10.806240     11.456443      7.668291
  Au      9.885551     10.811034     10.181440
  Au      8.026017     11.391203      8.098125
  Au     10.856227      9.279256      6.012798
  Au      6.512580      9.322434      7.254544
  Mn      9.038681      8.905077      7.933270
13
Coordinates from ORCA-job pbe E -2780.690040333072
  Au      7.608941      9.276612     10.157007
  Au      7.280808      6.989308      8.810398
  Au      6.253465      6.818613      6.186282
  Au      8.429021      5.202743      7.056155
  Au     10.545664      6.752544      7.792180
  Au      8.834811      7.565713      5.564237
  Au     11.609397      8.989688      8.877718
  Au     10.791537     11.441817      7.659129
  Au      9.879814     10.788791     10.174914
  Au      8.012918     11.417780      8.107479
  Au     10.860843      9.259279      6.016297
  Au      6.529731      9.317962      7.251603
  Mn      9.057176      8.935692      7.946057
13
Coordinates from ORCA-job pbe E -2780.690861782516
  Au      7.594241      9.277955     10.144356
  Au      7.310138      6.989590      8.796333
  Au      6.238608      6.813184      6.187455
  Au      8.434595      5.189651      7.047409
  Au     10.536017      6.753610      7.800184
  Au      8.813296      7.579232      5.584847
  Au     11.637469      8.992503      8.883915
  Au     10.776343     11.426557      7.650673
  Au      9.874024     10.767733     10.168084
  Au      8.001001     11.442636      8.115613
  Au     10.864142      9.241121      6.019946
  Au      6.539013      9.316948      7.242433
  Mn      9.075239      8.965820      7.958210
13
Coordinates from ORCA-job pbe E -2780.691715344301
  Au      7.576751      9.280979     10.136503
  Au      7.345672      6.993764      8.781260
  Au      6.224283      6.809583      6.190955
  Au      8.441902      5.178543      7.037982
  Au     10.529438      6.750069      7.810650
  Au      8.791373      7.597594      5.610076
  Au     11.658849      8.991093      8.887320
  Au     10.759300     11.410986      7.642928
  Au      9.869470     10.746338     10.160534
  Au      7.988142     11.460297      8.121494
  Au     10.872676      9.223912      6.019682
  Au      6.543458      9.318349      7.230291
  Mn      9.092812      8.995034      7.969781
13
Coordinates from ORCA-job pbe E -2780.692598810125
  Au      7.557457      9.284075     10.134367
  Au      7.389968      7.002271      8.763608
  Au      6.208905      6.807831      6.197250
  Au      8.451726      5.167270      7.026288
  Au     10.524787      6.741858      7.824536
  Au      8.768805      7.620968      5.641952
  Au     11.670176      8.985455      8.888843
  Au     10.742504     11.397144      7.634478
  Au      9.866009     10.727252     10.155936
  Au      7.975891     11.469448      8.123854
  Au     10.884635      9.207532      6.014021
  Au      6.544176      9.323186      7.214061
  Mn      9.109086      9.022249      7.980262
13
Coordinates from ORCA-job pbe E -2780.693415344594
  Au      7.535970      9.285484     10.133149
  Au      7.432377      7.008218      8.748332
  Au      6.195021      6.804451      6.203913
  Au      8.458502      5.158402      7.013836
  Au     10.512907      6.744084      7.841768
  Au      8.745537      7.643586      5.669239
  Au     11.680672      8.977540      8.887564
  Au     10.726082     11.384719      7.626273
  Au      9.863727     10.708997     10.151913
  Au      7.962089     11.475698      8.126386
  Au     10.898680      9.190067      6.006322
  Au      6.556593      9.324703      7.199727
  Mn      9.125968      9.050592      7.991034
13
Coordinates from ORCA-job pbe E -2780.694083154190
  Au      7.517610      9.286386     10.134436
  Au      7.484539      7.014850      8.728890
  Au      6.177288      6.800203      6.213906
  Au      8.467509      5.144362      6.994363
  Au     10.497816      6.742328      7.862545
  Au      8.720706      7.667834      5.701334
  Au     11.678487      8.968718      8.889004
  Au     10.713298     11.380646      7.614086
  Au      9.864695     10.698664     10.159263
  Au      7.953285     11.475639      8.124538
  Au     10.910297      9.173378      5.996405
  Au      6.569054      9.329379      7.180933
  Mn      9.139541      9.074155      7.999754
13
Coordinates from ORCA-job pbe E -2780.694476319041
  Au      7.504887      9.283741     10.122929
  Au      7.515513      7.009186      8.720098
  Au      6.163989      6.789246      6.219415
  Au      8.466450      5.135398      6.977684
  Au     10.469464      6.758788      7.882517
  Au      8.696522      7.682299      5.712200
  Au     11.698828      8.967497      8.890898
  Au     10.699664     11.373106      7.607500
  Au      9.865033     10.684796     10.155886
  Au      7.941283     11.491821      8.131633
  Au     10.914970      9.155424      5.998280
  Au      6.600319      9.320748      7.169360
  Mn      9.157203      9.104489      8.011054
13
Coordinates from ORCA-job pbe E -2780.694652089086
  Au      7.496004      9.286247     10.112340
  Au      7.564760      7.007014      8.704269
  Au      6.143019      6.786621      6.238171
  Au      8.476402      5.118200      6.947048
  Au     10.457644      6.752144      7.899077
  Au      8.673707      7.695024      5.731848
  Au     11.685267      8.966978      8.901006
  Au     10.690221     11.382751      7.593918
  Au      9.872803     10.686634     10.174363
  Au      7.944443     11.491206      8.125777
  Au     10.920398      9.138830      6.001625
  Au      6.606941      9.330374      7.154563
  Mn      9.162516      9.114516      8.015451
13
Coordinates from ORCA-job pbe E -2780.694648804203
  Au      7.466502      9.309203     10.092471
  Au      7.569666      6.992924      8.714796
  Au      6.147855      6.794169      6.241268
  Au      8.481806      5.128020      6.949559
  Au     10.472775      6.758324      7.889578
  Au      8.666289      7.703110      5.718100
  Au     11.702936      8.968447      8.891972
  Au     10.670533     11.375281      7.581335
  Au      9.874019     10.662151     10.170472
  Au      7.933170     11.500480      8.139629
  Au     10.945747      9.108762      6.019562
  Au      6.598614      9.336764      7.172460
  Mn      9.164215      9.118906      8.018254
13
Coordinates from ORCA-job pbe E -2780.694652056284
  Au      7.484845      9.281992     10.089332
  Au      7.571184      6.992402      8.713516
  Au      6.143158      6.785874      6.255003
  Au      8.482086      5.131142      6.929658
  Au     10.455636      6.755361      7.910655
  Au      8.668063      7.705181      5.721055
  Au     11.714042      8.969969      8.905698
  Au     10.679665     11.368724      7.580725
  Au      9.864649     10.668883     10.166932
  Au      7.932312     11.518166      8.134990
  Au     10.915534      9.109962      6.013861
  Au      6.609488      9.333265      7.153240
  Mn      9.173463      9.135621      8.024791
13
Coordinates from ORCA-job pbe E -2780.694180771824
  Au      7.455118      9.295011     10.069258
  Au      7.571816      7.002214      8.709024
  Au      6.155310      6.806087      6.246743
  Au      8.483145      5.137111      6.952023
  Au     10.483949      6.768823      7.882002
  Au      8.666103      7.695548      5.722361
  Au     11.689998      8.975002      8.880388
  Au     10.667220     11.388204      7.591209
  Au      9.887691     10.673938     10.164533
  Au      7.940068     11.497928      8.153005
  Au     10.953469      9.078294      6.035837
  Au      6.591860      9.338009      7.187444
  Mn      9.148381      9.100371      8.005629
13
Coordinates from ORCA-job pbe E -2780.694507349237
  Au      7.465675      9.317804     10.103828
  Au      7.577646      7.006258      8.719119
  Au      6.146786      6.786581      6.268769
  Au      8.482589      5.128552      6.915642
  Au     10.465432      6.734177      7.864684
  Au      8.679703      7.704743      5.722635
  Au     11.676998      8.951593      8.919846
  Au     10.682769     11.385857      7.577990
  Au      9.876579     10.681455     10.185385
  Au      7.934560     11.488481      8.101234
  Au     10.957656      9.123885      6.008558
  Au      6.579385      9.324514      7.186453
  Mn      9.168351      9.122640      8.025313
13
Coordinates from ORCA-job pbe E -2780.694531044859
  Au      7.504418      9.295311     10.090499
  Au      7.583820      6.991046      8.724394
  Au      6.144614      6.780663      6.261352
  Au      8.478150      5.133442      6.919747
  Au     10.452734      6.745708      7.914894
  Au      8.670048      7.722810      5.718316
  Au     11.693265      8.956684      8.906967
  Au     10.684046     11.360398      7.590728
  Au      9.861535     10.677602     10.156412
  Au      7.932707     11.502444      8.121926
  Au     10.914226      9.128803      6.022429
  Au      6.602434      9.327614      7.147620
  Mn      9.172129      9.134016      8.024173
13
Coordinates from ORCA-job pbe E -2780.694712041608
  Au      7.468654      9.290777     10.083656
  Au      7.572161      6.996285      8.715087
  Au      6.149245      6.788864      6.249639
  Au      8.474805      5.130155      6.936201
  Au     10.466507      6.759059      7.885820
  Au      8.673453      7.705317      5.722546
  Au     11.710360      8.965291      8.908829
  Au     10.672995     11.376600      7.581008
  Au      9.873976     10.669439     10.169291
  Au      7.932190     11.519675      8.129792
  Au     10.932443      9.099706      6.018141
  Au      6.598386      9.326692      7.176803
  Mn      9.168950      9.128678      8.022644
13
Coordinates from ORCA-job pbe E -2780.694637364018
  Au      7.470490      9.307887     10.091862
  Au      7.602714      6.998305      8.718779
  Au      6.144468      6.785237      6.276745
  Au      8.484790      5.130240      6.907464
  Au     10.460555      6.739684      7.880526
  Au      8.656549      7.716499      5.723207
  Au     11.667081      8.949208      8.918317
  Au     10.688682     11.381631      7.586510
  Au      9.872859     10.693188     10.177730
  Au      7.937367     11.487311      8.102836
  Au     10.955962      9.116154      6.016326
  Au      6.587558      9.328884      7.177726
  Mn      9.165051      9.122311      8.021427
13
Coordinates from ORCA-job pbe E -2780.694840379294
  Au      7.478924      9.295424     10.088059
  Au      7.592230      6.990606      8.719571
  Au      6.143104      6.783745      6.267966
  Au      8.480173      5.129973      6.915689
  Au     10.462802      6.747794      7.888449
  Au      8.661776      7.716465      5.720846
  Au     11.686176      8.956588      8.917383
  Au     10.692378     11.373038      7.589633
  Au      9.864795     10.691338     10.169558
  Au      7.937382     11.504652      8.112718
  Au     10.934016      9.112647      6.017527
  Au      6.593556      9.328230      7.170678
  Mn      9.166814      9.126039      8.021379
13
Coordinates from ORCA-job pbe E -2780.694843658655
  Au      7.477012      9.301762     10.085296
  Au      7.588281      6.993095      8.725302
  Au      6.149490      6.785629      6.265955
  Au      8.479176      5.135459      6.919613
  Au     10.462448      6.748696      7.882595
  Au      8.667217      7.719467      5.717978
  Au     11.687124      8.953583      8.916639
  Au     10.682461     11.371546      7.587028
  Au      9.867882     10.681323     10.166227
  Au      7.934699     11.503320      8.111205
  Au     10.938019      9.110916      6.021219
  Au      6.592711      9.324821      7.177734
  Mn      9.167606      9.126923      8.022665
13
Coordinates from ORCA-job pbe E -2780.694872328955
  Au      7.475679      9.295750     10.081871
  Au      7.600609      6.986597      8.726809
  Au      6.146184      6.783769      6.273836
  Au      8.481401      5.135380      6.910292
  Au     10.462550      6.750316      7.881535
  Au      8.656612      7.725544      5.717540
  Au     11.684524      8.953083      8.925169
  Au     10.693619     11.367149      7.590320
  Au      9.858958     10.692087     10.165271
  Au      7.938204     11.507973      8.105034
  Au     10.934349      9.105177      6.020415
  Au      6.593969      9.325442      7.178864
  Mn      9.167468      9.128271      8.022500
13
Coordinates from ORCA-job pbe E -2780.694892450110
  Au      7.471287      9.295287     10.078148
  Au      7.613413      6.979929      8.731328
  Au      6.144217      6.782097      6.284991
  Au      8.483054      5.137452      6.901599
  Au     10.466924      6.750536      7.871037
  Au      8.649237      7.734769      5.714648
  Au     11.676591      8.949777      8.937137
  Au     10.704263     11.362240      7.592383
  Au      9.850296     10.701274     10.165516
  Au      7.943135     11.510463      8.092949
  Au     10.935663      9.100504      6.021178
  Au      6.589554      9.324412      7.186586
  Mn      9.166492      9.127799      8.021956
13
Coordinates from ORCA-job pbe E -2780.694898321211
  Au      7.468445      9.295648     10.075728
  Au      7.620408      6.978172      8.735207
  Au      6.145139      6.781618      6.289503
  Au      8.484322      5.139525      6.897902
  Au     10.469141      6.751261      7.864248
  Au      8.644256      7.740621      5.713244
  Au     11.672374      8.947181      8.944825
  Au     10.706325     11.359157      7.592051
  Au      9.846792     10.702137     10.164686
  Au      7.945678     11.512553      8.085313
  Au     10.937790      9.097194      6.022096
  Au      6.587162      9.323118      7.192455
  Mn      9.166293      9.128355      8.022198
13
Coordinates from ORCA-job pbe E -2780.694899777112
  Au      7.468505      9.296277     10.076400
  Au      7.620721      6.978265      8.735777
  Au      6.145466      6.781759      6.289352
  Au      8.483860      5.140120      6.899290
  Au     10.470292      6.751522      7.861800
  Au      8.644905      7.741929      5.713037
  Au     11.670758      8.946321      8.946395
  Au     10.706081     11.358872      7.592238
  Au      9.846552     10.701513     10.164251
  Au      7.946455     11.512041      8.083233
  Au     10.938384      9.097795      6.021921
  Au      6.586264      9.322529      7.194101
  Mn      9.165883      9.127597      8.021660
