17
Coordinates from ORCA-job pbe E -3436.719015028635
  Au      9.786625     10.659049      6.239016
  Au      7.239382     11.553890      6.946518
  Au      7.816414     10.798844      4.182920
  Au      5.210468     10.576963      5.199597
  Au     10.441471      8.010981      6.896814
  Au      6.626852      8.227509      4.270723
  Au      8.443069      6.375331      5.728585
  Au      9.420929      8.517504      4.284218
  Au      8.738226      6.614135      8.635098
  Au      8.388002      9.423156      8.372521
  Au      7.079569      4.640233      7.503955
  Au      6.498889      7.833059      9.741657
  Au      4.038778      7.278923      8.483380
  Au      5.745036      5.742205      5.279181
  Au      5.464441      9.646758      7.864784
  Au      4.221642      8.014069      5.771416
  Fe      6.287810      7.031457      7.368204
17
Coordinates from ORCA-job pbe E -3436.723456355894
  Au      9.764386     10.638274      6.240559
  Au      7.247914     11.529582      6.939909
  Au      7.810565     10.778162      4.204400
  Au      5.230622     10.560290      5.207181
  Au     10.415126      8.019270      6.893321
  Au      6.634679      8.230994      4.284470
  Au      8.435935      6.395504      5.733174
  Au      9.403041      8.524225      4.302989
  Au      8.731852      6.627310      8.614702
  Au      8.381734      9.421032      8.358093
  Au      7.096502      4.623328      7.505251
  Au      6.515348      7.858718      9.758862
  Au      4.014191      7.285728      8.486046
  Au      5.749699      5.744718      5.247573
  Au      5.479832      9.641166      7.853737
  Au      4.241268      8.024554      5.776082
  Fe      6.294909      7.041213      7.362239
17
Coordinates from ORCA-job pbe E -3436.725914329211
  Au      9.765471     10.631785      6.237784
  Au      7.259114     11.531482      6.930724
  Au      7.804831     10.778151      4.208410
  Au      5.235822     10.550844      5.208143
  Au     10.406517      8.022100      6.895800
  Au      6.636984      8.224860      4.294522
  Au      8.423244      6.407571      5.740558
  Au      9.406825      8.537760      4.306553
  Au      8.714719      6.628849      8.594320
  Au      8.373067      9.417293      8.354852
  Au      7.119544      4.590613      7.501198
  Au      6.527090      7.891532      9.798215
  Au      3.977429      7.299254      8.497479
  Au      5.750924      5.729655      5.200538
  Au      5.489442      9.627802      7.849362
  Au      4.256267      8.026182      5.792616
  Fe      6.300312      7.048334      7.357511
17
Coordinates from ORCA-job pbe E -3436.726887674170
  Au      9.758626     10.617144      6.239200
  Au      7.268657     11.526253      6.918705
  Au      7.793172     10.767848      4.217986
  Au      5.242810     10.535295      5.214399
  Au     10.392491      8.022670      6.901003
  Au      6.641468      8.213838      4.315232
  Au      8.409831      6.422583      5.741135
  Au      9.407764      8.553242      4.315866
  Au      8.687563      6.627884      8.579185
  Au      8.355210      9.408157      8.347441
  Au      7.138490      4.587820      7.474531
  Au      6.527027      7.916891      9.814255
  Au      3.978712      7.331514      8.503099
  Au      5.760705      5.720577      5.175948
  Au      5.503974      9.617720      7.845583
  Au      4.273412      8.016065      5.814299
  Fe      6.307691      7.058568      7.350721
17
Coordinates from ORCA-job pbe E -3436.727533088153
  Au      9.765732     10.614710      6.241577
  Au      7.281318     11.540648      6.904971
  Au      7.784718     10.769040      4.211555
  Au      5.238907     10.530692      5.210252
  Au     10.393598      8.021798      6.911737
  Au      6.645100      8.203430      4.326023
  Au      8.408465      6.435089      5.730678
  Au      9.422507      8.573729      4.313588
  Au      8.667389      6.618650      8.577079
  Au      8.343313      9.404155      8.345836
  Au      7.142617      4.571342      7.449160
  Au      6.518595      7.929473      9.839070
  Au      3.975924      7.346370      8.526140
  Au      5.761119      5.697328      5.158303
  Au      5.515001      9.625487      7.845807
  Au      4.273498      8.001449      5.828285
  Fe      6.309802      7.060678      7.348527
17
Coordinates from ORCA-job pbe E -3436.728015837689
  Au      9.770790     10.611157      6.249060
  Au      7.288289     11.553535      6.891486
  Au      7.772792     10.766081      4.203599
  Au      5.229104     10.516555      5.209160
  Au     10.390362      8.012761      6.930265
  Au      6.647567      8.192773      4.342435
  Au      8.412883      6.448328      5.716822
  Au      9.439317      8.591158      4.311918
  Au      8.648812      6.610908      8.579442
  Au      8.328146      9.395731      8.341560
  Au      7.140442      4.568673      7.410618
  Au      6.507473      7.936298      9.849926
  Au      3.994043      7.368443      8.551837
  Au      5.763062      5.681241      5.153325
  Au      5.526251      9.639090      7.844564
  Au      4.274544      7.986109      5.837705
  Fe      6.313725      7.065227      7.344865
17
Coordinates from ORCA-job pbe E -3436.728201913500
  Au      9.770188     10.606865      6.255155
  Au      7.292801     11.561942      6.879995
  Au      7.766809     10.761440      4.199729
  Au      5.222339     10.510233      5.207740
  Au     10.387634      8.006630      6.941410
  Au      6.651666      8.189803      4.354390
  Au      8.423549      6.456320      5.706737
  Au      9.451511      8.604065      4.311811
  Au      8.638910      6.600388      8.587200
  Au      8.318961      9.390458      8.333884
  Au      7.136121      4.572158      7.383334
  Au      6.498824      7.934028      9.851270
  Au      4.013530      7.382468      8.569603
  Au      5.762667      5.673656      5.157930
  Au      5.529461      9.654382      7.842393
  Au      4.266466      7.971943      5.843019
  Fe      6.316165      7.067288      7.342985
17
Coordinates from ORCA-job pbe E -3436.728254189774
  Au      9.770583     10.606685      6.258379
  Au      7.289074     11.564311      6.878635
  Au      7.764172     10.760042      4.197453
  Au      5.217684     10.506502      5.207853
  Au     10.387868      8.001836      6.946238
  Au      6.651660      8.190475      4.359306
  Au      8.428582      6.455118      5.706356
  Au      9.456354      8.603332      4.309808
  Au      8.639405      6.596475      8.590684
  Au      8.316325      9.387211      8.330817
  Au      7.136239      4.574487      7.378876
  Au      6.502756      7.932709      9.847340
  Au      4.017636      7.386726      8.571125
  Au      5.761604      5.680324      5.159418
  Au      5.526117      9.658198      7.841084
  Au      4.263638      7.970684      5.843290
  Fe      6.317904      7.068954      7.341924
17
Coordinates from ORCA-job pbe E -3436.728305700389
  Au      9.767667     10.604278      6.261416
  Au      7.286003     11.565337      6.875757
  Au      7.763843     10.756594      4.197117
  Au      5.213883     10.505026      5.206202
  Au     10.387344      7.998856      6.949563
  Au      6.654622      8.193815      4.366503
  Au      8.434578      6.453642      5.707237
  Au      9.461006      8.603632      4.309312
  Au      8.642223      6.590590      8.594846
  Au      8.313123      9.383650      8.323110
  Au      7.138378      4.575560      7.375858
  Au      6.509101      7.930528      9.843315
  Au      4.019349      7.390947      8.572494
  Au      5.759531      5.688933      5.160908
  Au      5.519777      9.661614      7.840155
  Au      4.256691      7.970004      5.844102
  Fe      6.320482      7.071062      7.340691
17
Coordinates from ORCA-job pbe E -3436.728344982453
  Au      9.764720     10.602685      6.262534
  Au      7.281934     11.565142      6.873017
  Au      7.764013     10.754475      4.197801
  Au      5.211697     10.504570      5.204879
  Au     10.388440      7.996913      6.951149
  Au      6.658870      8.197103      4.376431
  Au      8.438562      6.451999      5.708838
  Au      9.466215      8.603290      4.308491
  Au      8.645709      6.584541      8.597476
  Au      8.307478      9.379863      8.313288
  Au      7.141360      4.574341      7.373515
  Au      6.513835      7.929337      9.841506
  Au      4.018076      7.395380      8.574079
  Au      5.757916      5.695473      5.161397
  Au      5.513735      9.663351      7.839267
  Au      4.251243      7.971672      5.845840
  Fe      6.323797      7.073932      7.339079
17
Coordinates from ORCA-job pbe E -3436.728380027783
  Au      9.762830     10.601267      6.262273
  Au      7.278753     11.565179      6.871347
  Au      7.766632     10.754155      4.197764
  Au      5.210129     10.506642      5.201532
  Au     10.389170      7.996627      6.951763
  Au      6.663974      8.200190      4.387935
  Au      8.440952      6.450960      5.710586
  Au      9.470815      8.602229      4.307684
  Au      8.649808      6.580924      8.597582
  Au      8.300484      9.374280      8.302088
  Au      7.144449      4.572522      7.372279
  Au      6.516066      7.927045      9.840727
  Au      4.016136      7.397692      8.576177
  Au      5.756203      5.698658      5.163337
  Au      5.507079      9.663816      7.840129
  Au      4.246457      7.974716      5.847931
  Fe      6.327665      7.077164      7.337453
17
Coordinates from ORCA-job pbe E -3436.728418814994
  Au      9.761250     10.602536      6.259739
  Au      7.275351     11.563014      6.870460
  Au      7.769682     10.755735      4.198154
  Au      5.211523     10.509724      5.198084
  Au     10.393542      7.998826      6.950551
  Au      6.668974      8.203980      4.403447
  Au      8.442969      6.448424      5.711756
  Au      9.474768      8.601076      4.304615
  Au      8.654822      6.577036      8.597580
  Au      8.290889      9.367458      8.288196
  Au      7.145247      4.570496      7.373873
  Au      6.513972      7.922241      9.840494
  Au      4.013408      7.397574      8.576665
  Au      5.753764      5.699797      5.167922
  Au      5.500380      9.664725      7.840984
  Au      4.244698      7.980167      5.850490
  Fe      6.332362      7.081256      7.335575
17
Coordinates from ORCA-job pbe E -3436.728457451391
  Au      9.762243     10.603511      6.256535
  Au      7.273882     11.561495      6.871686
  Au      7.775035     10.759840      4.196582
  Au      5.212876     10.515819      5.193055
  Au     10.395772      8.001747      6.948286
  Au      6.673408      8.206802      4.419246
  Au      8.444776      6.446811      5.712360
  Au      9.476017      8.598783      4.302053
  Au      8.659249      6.577140      8.594947
  Au      8.281178      9.357626      8.274593
  Au      7.144759      4.571064      7.378807
  Au      6.509560      7.915610      9.839213
  Au      4.012387      7.392008      8.575458
  Au      5.751673      5.698135      5.175446
  Au      5.493026      9.666251      7.843719
  Au      4.244060      7.985409      5.852873
  Fe      6.337700      7.086017      7.333726
17
Coordinates from ORCA-job pbe E -3436.728489334017
  Au      9.764053     10.606541      6.253683
  Au      7.274618     11.558520      6.873091
  Au      7.777710     10.764092      4.194822
  Au      5.215724     10.519737      5.189778
  Au     10.399554      8.005215      6.946180
  Au      6.674457      8.209292      4.431158
  Au      8.446662      6.443631      5.711505
  Au      9.473843      8.598499      4.298837
  Au      8.663031      6.577275      8.594192
  Au      8.274510      9.349951      8.265118
  Au      7.140083      4.574016      7.386464
  Au      6.503098      7.908646      9.837781
  Au      4.013624      7.383648      8.570994
  Au      5.749820      5.695799      5.183118
  Au      5.488539      9.668662      7.845858
  Au      4.246277      7.990127      5.853736
  Fe      6.341997      7.090415      7.332273
17
Coordinates from ORCA-job pbe E -3436.728514593675
  Au      9.767131     10.608338      6.252419
  Au      7.276621     11.556408      6.873912
  Au      7.778751     10.768233      4.192420
  Au      5.216870     10.522721      5.188486
  Au     10.400672      8.006461      6.944680
  Au      6.673971      8.210241      4.438342
  Au      8.448545      6.441078      5.709982
  Au      9.469743      8.599051      4.298081
  Au      8.665403      6.577489      8.594234
  Au      8.271052      9.343763      8.259729
  Au      7.134557      4.579222      7.394648
  Au      6.498653      7.904463      9.836225
  Au      4.016940      7.374088      8.565058
  Au      5.749731      5.693922      5.188158
  Au      5.486087      9.671676      7.847609
  Au      4.247186      7.991974      5.853760
  Fe      6.345689      7.094940      7.330844
17
Coordinates from ORCA-job pbe E -3436.728542101970
  Au      9.770744     10.610122      6.252404
  Au      7.279221     11.553840      6.872930
  Au      7.778160     10.772275      4.189582
  Au      5.217055     10.523762      5.187941
  Au     10.401060      8.006504      6.944355
  Au      6.672934      8.211666      4.444717
  Au      8.450695      6.437223      5.708235
  Au      9.464572      8.601496      4.298968
  Au      8.668693      6.575890      8.596067
  Au      8.268639      9.337868      8.254522
  Au      7.126380      4.585841      7.403974
  Au      6.496018      7.901948      9.834897
  Au      4.022224      7.363048      8.558040
  Au      5.750232      5.693273      5.191149
  Au      5.484138      9.674438      7.849322
  Au      4.246420      7.993338      5.852872
  Fe      6.350417      7.101536      7.328611
17
Coordinates from ORCA-job pbe E -3436.728578477644
  Au      9.775808     10.612087      6.253490
  Au      7.281602     11.550612      6.869256
  Au      7.776810     10.777574      4.185737
  Au      5.216026     10.523860      5.188010
  Au     10.400254      8.004967      6.944773
  Au      6.672827      8.213786      4.453442
  Au      8.453341      6.431395      5.706525
  Au      9.458695      8.605293      4.302548
  Au      8.673407      6.571599      8.599478
  Au      8.265341      9.330756      8.246234
  Au      7.113547      4.594677      7.415298
  Au      6.495278      7.901155      9.833917
  Au      4.030538      7.347517      8.550365
  Au      5.751909      5.694291      5.192161
  Au      5.481490      9.677415      7.851075
  Au      4.242524      7.994056      5.851948
  Fe      6.358205      7.113026      7.324328
17
Coordinates from ORCA-job pbe E -3436.728616079929
  Au      9.781243     10.614794      6.255662
  Au      7.282274     11.547236      6.862922
  Au      7.775864     10.782821      4.181563
  Au      5.214336     10.522222      5.187564
  Au     10.398651      8.002731      6.946124
  Au      6.674649      8.217318      4.463118
  Au      8.455990      6.423890      5.705720
  Au      9.453994      8.609695      4.308259
  Au      8.678702      6.565122      8.603468
  Au      8.261328      9.324166      8.235394
  Au      7.096273      4.603436      7.425892
  Au      6.497041      7.901970      9.833680
  Au      4.041208      7.329684      8.545380
  Au      5.753840      5.697227      5.191002
  Au      5.477772      9.678509      7.852796
  Au      4.236080      7.994611      5.851881
  Fe      6.368356      7.128633      7.318163
17
Coordinates from ORCA-job pbe E -3436.728641719258
  Au      9.784980     10.617851      6.258312
  Au      7.280568     11.545061      6.856855
  Au      7.776509     10.786097      4.178964
  Au      5.213128     10.520016      5.187058
  Au     10.396552      8.000669      6.947363
  Au      6.677302      8.220138      4.468597
  Au      8.456946      6.417644      5.705955
  Au      9.452129      8.611786      4.313632
  Au      8.681047      6.559225      8.605316
  Au      8.258847      9.321616      8.227219
  Au      7.082646      4.609352      7.431770
  Au      6.499956      7.903895      9.834732
  Au      4.049672      7.316338      8.544730
  Au      5.755367      5.700809      5.188054
  Au      5.475192      9.677555      7.853578
  Au      4.230293      7.993766      5.853999
  Fe      6.376468      7.142249      7.312454
17
Coordinates from ORCA-job pbe E -3436.728656723615
  Au      9.786353     10.620403      6.260352
  Au      7.277423     11.544294      6.853523
  Au      7.778634     10.786490      4.178626
  Au      5.212838     10.517715      5.185975
  Au     10.395027      7.999988      6.947828
  Au      6.679142      8.221901      4.468728
  Au      8.456807      6.414189      5.706038
  Au      9.452420      8.611601      4.316415
  Au      8.680607      6.556332      8.604795
  Au      8.258621      9.322228      8.224291
  Au      7.076191      4.611481      7.433299
  Au      6.502259      7.904896      9.835945
  Au      4.053608      7.310972      8.546585
  Au      5.755359      5.703342      5.186040
  Au      5.473926      9.675399      7.854335
  Au      4.228059      7.992780      5.856713
  Fe      6.380328      7.150056      7.309098
17
Coordinates from ORCA-job pbe E -3436.728669768919
  Au      9.786514     10.623036      6.262372
  Au      7.273284     11.543769      6.851459
  Au      7.782171     10.786040      4.179863
  Au      5.213026     10.515877      5.184335
  Au     10.393633      8.000208      6.947875
  Au      6.680630      8.222624      4.467157
  Au      8.456421      6.411086      5.705429
  Au      9.453919      8.609770      4.317853
  Au      8.678956      6.555244      8.602853
  Au      8.258781      9.323719      8.222823
  Au      7.071988      4.612778      7.432960
  Au      6.503698      7.904474      9.836523
  Au      4.056466      7.307693      8.550154
  Au      5.754590      5.705333      5.185774
  Au      5.472797      9.674297      7.855359
  Au      4.227820      7.991491      5.859695
  Fe      6.382908      7.156627      7.306101
17
Coordinates from ORCA-job pbe E -3436.728680128597
  Au      9.785812     10.624775      6.263722
  Au      7.269443     11.543835      6.851535
  Au      7.785229     10.784163      4.182752
  Au      5.213324     10.514030      5.183144
  Au     10.392703      8.000835      6.947056
  Au      6.681026      8.221835      4.462117
  Au      8.456206      6.409779      5.703709
  Au      9.455167      8.607317      4.317566
  Au      8.676456      6.555941      8.600577
  Au      8.260339      9.326384      8.225527
  Au      7.071240      4.612916      7.431542
  Au      6.504168      7.903320      9.836800
  Au      4.057121      7.308891      8.552791
  Au      5.753660      5.705792      5.186458
  Au      5.472642      9.674153      7.856879
  Au      4.229933      7.989996      5.861913
  Fe      6.383134      7.160105      7.304498
17
Coordinates from ORCA-job pbe E -3436.728687614708
  Au      9.785385     10.625641      6.264798
  Au      7.267017     11.543197      6.851949
  Au      7.787297     10.783376      4.185637
  Au      5.213624     10.513250      5.181657
  Au     10.392000      8.001728      6.946595
  Au      6.681201      8.220486      4.459490
  Au      8.456966      6.407500      5.702089
  Au      9.455594      8.605463      4.316474
  Au      8.676002      6.557392      8.599083
  Au      8.260168      9.326864      8.226540
  Au      7.068812      4.614493      7.431191
  Au      6.503476      7.900779      9.835837
  Au      4.059344      7.307490      8.554895
  Au      5.752910      5.705580      5.188844
  Au      5.471376      9.676381      7.858633
  Au      4.232042      7.989868      5.862404
  Fe      6.384389      7.164580      7.302471
17
Coordinates from ORCA-job pbe E -3436.728693973509
  Au      9.784264     10.624265      6.265232
  Au      7.266485     11.543571      6.854863
  Au      7.786898     10.780985      4.190005
  Au      5.213548     10.512257      5.182355
  Au     10.391312      8.002046      6.945141
  Au      6.679715      8.216654      4.451548
  Au      8.456950      6.408187      5.700173
  Au      9.455103      8.603607      4.313745
  Au      8.674644      6.559660      8.597817
  Au      8.262449      9.329717      8.233616
  Au      7.073596      4.614918      7.430326
  Au      6.502542      7.899211      9.835949
  Au      4.057100      7.313056      8.553603
  Au      5.752615      5.703864      5.189573
  Au      5.472596      9.678722      7.860255
  Au      4.235439      7.988885      5.861810
  Fe      6.382346      7.164464      7.302576
17
Coordinates from ORCA-job pbe E -3436.728700535160
  Au      9.784926     10.623225      6.265287
  Au      7.266744     11.542769      6.855528
  Au      7.785940     10.780966      4.191938
  Au      5.213419     10.512028      5.182103
  Au     10.391143      8.002359      6.944386
  Au      6.679939      8.214959      4.451215
  Au      8.458795      6.406465      5.699493
  Au      9.453498      8.603853      4.311961
  Au      8.677363      6.560286      8.598702
  Au      8.260600      9.327974      8.233715
  Au      7.070381      4.617546      7.432730
  Au      6.501353      7.896522      9.835159
  Au      4.059320      7.311187      8.551716
  Au      5.752833      5.703142      5.191322
  Au      5.470455      9.681216      7.862096
  Au      4.236249      7.990384      5.860462
  Fe      6.384643      7.169187      7.300774
17
Coordinates from ORCA-job pbe E -3436.728706919629
  Au      9.785439     10.621037      6.265367
  Au      7.268530     11.542185      6.856496
  Au      7.783758     10.781221      4.193633
  Au      5.213276     10.512298      5.183033
  Au     10.390494      8.002052      6.943693
  Au      6.679929      8.212607      4.450161
  Au      8.459705      6.404858      5.700048
  Au      9.451844      8.604451      4.309919
  Au      8.680555      6.560363      8.599961
  Au      8.258601      9.326518      8.233869
  Au      7.070089      4.621207      7.436063
  Au      6.500568      7.894177      9.835114
  Au      4.060133      7.309435      8.548457
  Au      5.753053      5.702414      5.191905
  Au      5.469007      9.683426      7.863513
  Au      4.235747      7.992059      5.858304
  Fe      6.386873      7.173758      7.299051
17
Coordinates from ORCA-job pbe E -3436.728710055187
  Au      9.785701     10.620046      6.265039
  Au      7.269066     11.542350      6.856809
  Au      7.782762     10.781085      4.193970
  Au      5.213307     10.512002      5.183923
  Au     10.390383      8.001993      6.942924
  Au      6.680749      8.211795      4.450309
  Au      8.460178      6.404494      5.700508
  Au      9.451503      8.604903      4.309018
  Au      8.682926      6.559742      8.600987
  Au      8.256907      9.325585      8.232891
  Au      7.068701      4.623061      7.438604
  Au      6.500551      7.892143      9.835566
  Au      4.060335      7.308923      8.545754
  Au      5.752909      5.702650      5.192282
  Au      5.467701      9.683282      7.864608
  Au      4.235003      7.992840      5.857583
  Fe      6.388920      7.177171      7.297812
