13
E=  -1362.86810060;c=0;m=6
Au      4.219359285327720      6.007343642182560     10.335838539572700
Au      6.858417296239700      5.918677878516980      9.623449879392080
Au      5.390561847752010      8.497622035224889      9.784320215700429
Au      7.345726067472440     10.204409884861850      8.722620206343960
Au      9.359343990716170      6.235542588918660      8.921798825557140
Au      9.755287971540470      9.198728257630121      8.236782421562600
Au     11.488121617907540      7.186102332355830      7.495790489669790
Au      9.161501779488850      7.113720121493070      6.065002650772670
Au      4.703774145774730      6.422770193057970      7.734608396133060
Au      5.214795419000840      9.312818159326779      7.131232867501110
Au      6.581370379170790      7.144306772405070      5.630072462986340
Au      3.878960962247650      7.519178784071220      5.434518394666000
Mn      7.546363087361150      7.804309969954980      7.959218790142190
