17
E=  -1788.21431115;c=0;m=5
Au      8.780476765657211      8.202201819582230      4.612039032116610
Au      6.937056994128270      9.657271635918200      6.343535675699550
Au     10.559717764061579      6.727807328855830      6.262795393833990
Au      8.276253999752500      5.231931801551010      5.391051053877110
Au      6.152750924246970      7.205892898596970      5.028675553210360
Au      9.611319566519491      6.001356164686640      8.829740756207601
Au      7.042970860251840      5.162655587292490      8.077197949992510
Au      5.401691762207820      7.483338083291880      7.709688326796630
Au      8.035061446197130     10.064183926767621     10.769895150979041
Au      9.907111571794809      7.994388407038850     10.850588708772930
Au      5.872627062429080      9.943186542214651      8.996614009185929
Au      7.358489750405030      7.530050158324720      9.701171927935700
Au      9.794718867868299      9.462841810751639      6.875648450557740
Au     10.532397890450330     10.443358353394290      9.390834301897920
Au      8.166703955878580     11.394956556202960      8.188462026069610
Au     11.615324209302241      7.987827676635290      8.556276184013210
Cr      8.003080018848820      7.244608088894710      6.944556648853570
