16
E=  -1708.57518689;c=0;m=6
Au      9.084332375681081      6.069993567130190      7.340046824696030
Au     10.293037217864169      7.869478673134440      5.617161723486960
Au      6.603754262993040      5.159218790701510      6.125949496043300
Au      4.822947370517190      7.415358850386180      5.804609398881250
Au      7.539148836235400      7.605706633671170      5.144075428025340
Au      6.076436202572410      9.789319855321310      6.606469789736010
Au      8.652126011501791     10.166776460167499      5.526384904964900
Au      7.937665932576520     11.385827454369640      7.972063363751840
Au      6.844728794391220      9.413324104554659      9.578958199582340
Au      9.301744959871799      8.896360098003550      8.072889250386581
Au      4.320346963283880      8.568214398556281      8.408968104467320
Au      8.519582965673690      7.075528503163310     10.009657787903469
Au      5.693066591119610      6.964359375884040     10.357702250788741
Au      4.497156334705880      5.683262099224010      8.065312840973890
Au      7.116222051096310      4.839680970261320      8.934752467188559
Fe      6.685491699916010      7.297283655470960      7.843833319123470
