16
Coordinates from ORCA-job pbe E -3300.921299947483
  Au      9.084332      6.069994      7.340047
  Au     10.293037      7.869479      5.617162
  Au      6.603754      5.159219      6.125949
  Au      4.822947      7.415359      5.804609
  Au      7.539149      7.605707      5.144075
  Au      6.076436      9.789320      6.606470
  Au      8.652126     10.166776      5.526385
  Au      7.937666     11.385827      7.972063
  Au      6.844729      9.413324      9.578958
  Au      9.301745      8.896360      8.072889
  Au      4.320347      8.568214      8.408968
  Au      8.519583      7.075529     10.009658
  Au      5.693067      6.964359     10.357702
  Au      4.497156      5.683262      8.065313
  Au      7.116222      4.839681      8.934752
  Fe      6.685492      7.297284      7.843833
16
Coordinates from ORCA-job pbe E -3300.923583850832
  Au      9.065881      6.074727      7.345971
  Au     10.253499      7.855028      5.639509
  Au      6.626598      5.197169      6.131034
  Au      4.862589      7.425938      5.827519
  Au      7.523329      7.598330      5.168640
  Au      6.074529      9.761171      6.617375
  Au      8.621727     10.132443      5.547567
  Au      7.917399     11.342910      7.975628
  Au      6.841330      9.395712      9.570207
  Au      9.275171      8.878863      8.072343
  Au      4.361476      8.578877      8.395398
  Au      8.500356      7.084550      9.976452
  Au      5.716016      6.983957     10.336402
  Au      4.518989      5.711471      8.045189
  Au      7.132224      4.870349      8.920898
  Fe      6.696676      7.308200      7.838703
16
Coordinates from ORCA-job pbe E -3300.923916421264
  Au      9.073360      6.073452      7.345645
  Au     10.248544      7.851586      5.645931
  Au      6.633092      5.179989      6.130120
  Au      4.841248      7.414664      5.822375
  Au      7.537241      7.610809      5.154872
  Au      6.084353      9.779772      6.607928
  Au      8.618927     10.126842      5.553721
  Au      7.915519     11.334996      7.979627
  Au      6.844356      9.400967      9.574604
  Au      9.267207      8.873747      8.072138
  Au      4.352325      8.585222      8.409638
  Au      8.504110      7.092963      9.967271
  Au      5.714346      6.981480     10.342856
  Au      4.520165      5.715634      8.040645
  Au      7.132487      4.864930      8.925659
  Fe      6.700509      7.312640      7.835804
16
Coordinates from ORCA-job pbe E -3300.924305588374
  Au      9.083294      6.059309      7.348479
  Au     10.260859      7.840870      5.638037
  Au      6.644061      5.179303      6.129948
  Au      4.845749      7.413401      5.827756
  Au      7.528504      7.603087      5.142255
  Au      6.068515      9.782690      6.602867
  Au      8.613635     10.130053      5.544083
  Au      7.910980     11.349864      7.989384
  Au      6.841095      9.406427      9.591005
  Au      9.266832      8.872131      8.074243
  Au      4.357378      8.593280      8.414711
  Au      8.506283      7.093021      9.968957
  Au      5.707227      6.974302     10.342486
  Au      4.524552      5.723555      8.033805
  Au      7.123427      4.860862      8.927536
  Fe      6.705397      7.317539      7.833285
16
Coordinates from ORCA-job pbe E -3300.924681620273
  Au      9.094179      6.048944      7.351959
  Au     10.253990      7.837280      5.638790
  Au      6.662760      5.182214      6.127798
  Au      4.854862      7.419191      5.827364
  Au      7.520708      7.596817      5.135344
  Au      6.057035      9.782143      6.600370
  Au      8.600181     10.118714      5.547855
  Au      7.905502     11.344724      7.989385
  Au      6.841227      9.411928      9.605503
  Au      9.258786      8.872536      8.065728
  Au      4.367893      8.607814      8.419972
  Au      8.504244      7.086351      9.976647
  Au      5.704860      6.970580     10.338857
  Au      4.528237      5.730461      8.027760
  Au      7.117670      4.862227      8.927303
  Fe      6.715655      7.327770      7.828202
16
Coordinates from ORCA-job pbe E -3300.925174949362
  Au      9.108394      6.024876      7.367784
  Au     10.242186      7.823390      5.642974
  Au      6.697474      5.183753      6.134710
  Au      4.861532      7.420860      5.830597
  Au      7.511741      7.588599      5.107911
  Au      6.034161      9.794756      6.588366
  Au      8.582296     10.101650      5.555456
  Au      7.891887     11.334296      7.996144
  Au      6.839061      9.411733      9.637793
  Au      9.233306      8.862805      8.055170
  Au      4.389813      8.627052      8.438644
  Au      8.492343      7.079485      9.974655
  Au      5.708908      6.970260     10.325568
  Au      4.541887      5.748426      8.015463
  Au      7.112704      4.874889      8.922507
  Fe      6.740095      7.352864      7.815093
16
Coordinates from ORCA-job pbe E -3300.925465303919
  Au      9.125231      6.015874      7.380636
  Au     10.228583      7.813570      5.648085
  Au      6.711965      5.186005      6.134918
  Au      4.866502      7.425259      5.829220
  Au      7.507807      7.584930      5.087019
  Au      6.020042      9.806289      6.578568
  Au      8.571760     10.089851      5.561803
  Au      7.880172     11.321800      7.998868
  Au      6.847128      9.415442      9.658595
  Au      9.213854      8.855372      8.047303
  Au      4.398932      8.636458      8.444937
  Au      8.498538      7.081164      9.978423
  Au      5.702655      6.964442     10.323844
  Au      4.549656      5.756873      8.010767
  Au      7.103990      4.871901      8.922143
  Fe      6.760973      7.374461      7.803705
16
Coordinates from ORCA-job pbe E -3300.925683097598
  Au      9.131566      6.010574      7.393717
  Au     10.220800      7.806920      5.645866
  Au      6.708964      5.191020      6.138734
  Au      4.864558      7.425186      5.828443
  Au      7.509925      7.586508      5.071213
  Au      6.014799      9.818576      6.570286
  Au      8.572513     10.090148      5.561050
  Au      7.870092     11.318592      7.997716
  Au      6.852383      9.411827      9.671692
  Au      9.203050      8.849874      8.045123
  Au      4.402869      8.630763      8.443303
  Au      8.497742      7.073900      9.988947
  Au      5.705372      6.962797     10.323119
  Au      4.552883      5.758548      8.010923
  Au      7.103536      4.874037      8.923097
  Fe      6.776737      7.390422      7.795606
16
Coordinates from ORCA-job pbe E -3300.925835154350
  Au      9.131396      6.011281      7.404104
  Au     10.214868      7.800300      5.644349
  Au      6.695380      5.200370      6.143367
  Au      4.861735      7.427366      5.823569
  Au      7.508414      7.589989      5.063748
  Au      6.012716      9.822857      6.563185
  Au      8.580303     10.096182      5.559326
  Au      7.861341     11.316259      7.997760
  Au      6.857404      9.405191      9.675907
  Au      9.198477      8.844434      8.049092
  Au      4.405172      8.616892      8.433577
  Au      8.502979      7.071634      9.998265
  Au      5.708740      6.962251     10.322937
  Au      4.554487      5.754571      8.017710
  Au      7.104508      4.875937      8.923956
  Fe      6.789867      7.404181      7.787984
16
Coordinates from ORCA-job pbe E -3300.925899435825
  Au      9.128216      6.012082      7.404204
  Au     10.212424      7.799545      5.643537
  Au      6.684737      5.206810      6.145646
  Au      4.855946      7.422838      5.824682
  Au      7.505191      7.595378      5.065513
  Au      6.015410      9.819581      6.558591
  Au      8.588054     10.101128      5.559876
  Au      7.859340     11.315595      7.996639
  Au      6.856403      9.403018      9.673648
  Au      9.202333      8.844425      8.053050
  Au      4.405583      8.607345      8.425019
  Au      8.506437      7.068847     10.005994
  Au      5.712347      6.960630     10.323019
  Au      4.554474      5.753529      8.019116
  Au      7.105471      4.878307      8.926738
  Fe      6.795422      7.410636      7.783563
16
Coordinates from ORCA-job pbe E -3300.925947878443
  Au      9.123946      6.011412      7.402032
  Au     10.210640      7.799295      5.643736
  Au      6.680400      5.209276      6.146952
  Au      4.849216      7.420182      5.821519
  Au      7.498572      7.601867      5.070017
  Au      6.018427      9.811793      6.553066
  Au      8.595531     10.104775      5.562709
  Au      7.858489     11.314288      7.996570
  Au      6.852855      9.401219      9.670765
  Au      9.208775      8.844786      8.059020
  Au      4.405962      8.603574      8.421156
  Au      8.509987      7.069418     10.008395
  Au      5.715423      6.959547     10.321865
  Au      4.553344      5.750323      8.023177
  Au      7.105923      4.881364      8.928803
  Fe      6.800298      7.416574      7.779054
16
Coordinates from ORCA-job pbe E -3300.925975343284
  Au      9.122020      6.009393      7.398111
  Au     10.208361      7.799332      5.644368
  Au      6.682730      5.209543      6.146747
  Au      4.843447      7.414702      5.823255
  Au      7.493606      7.605806      5.073095
  Au      6.019883      9.806046      6.549379
  Au      8.599733     10.105471      5.566416
  Au      7.857738     11.312253      7.996286
  Au      6.848746      9.402210      9.669292
  Au      9.215297      8.845982      8.063658
  Au      4.407056      8.605776      8.421360
  Au      8.510750      7.070275     10.007325
  Au      5.715792      6.958138     10.320696
  Au      4.554290      5.751398      8.023134
  Au      7.104722      4.882776      8.929798
  Fe      6.803618      7.420593      7.775915
16
Coordinates from ORCA-job pbe E -3300.925988873105
  Au      9.122161      6.007702      7.396509
  Au     10.206395      7.799607      5.644419
  Au      6.686359      5.207696      6.145875
  Au      4.841665      7.412332      5.824751
  Au      7.491227      7.607394      5.073186
  Au      6.019660      9.803937      6.547139
  Au      8.600906     10.104763      5.568938
  Au      7.856693     11.310486      7.995435
  Au      6.846972      9.403176      9.669698
  Au      9.220340      8.847175      8.066901
  Au      4.407133      8.609315      8.423748
  Au      8.508764      7.070553     10.004599
  Au      5.714472      6.958581     10.320482
  Au      4.555361      5.752219      8.023581
  Au      7.104145      4.882162      8.929025
  Fe      6.805536      7.422597      7.774549
16
Coordinates from ORCA-job pbe E -3300.925997426132
  Au      9.123448      6.007076      7.396700
  Au     10.204000      7.799132      5.644508
  Au      6.688853      5.207132      6.144866
  Au      4.841326      7.410954      5.826308
  Au      7.490197      7.607130      5.071248
  Au      6.017922      9.804561      6.545673
  Au      8.600848     10.103558      5.570512
  Au      7.854957     11.308849      7.994416
  Au      6.847278      9.403913      9.670960
  Au      9.224810      8.848182      8.069744
  Au      4.407315      8.611799      8.425135
  Au      8.505758      7.069889     10.002392
  Au      5.712749      6.958996     10.320397
  Au      4.557323      5.752927      8.024688
  Au      7.103406      4.881117      8.927693
  Fe      6.807600      7.424477      7.773595
16
Coordinates from ORCA-job pbe E -3300.926002679303
  Au      9.124497      6.007199      7.398183
  Au     10.202247      7.798876      5.644141
  Au      6.689175      5.207247      6.144496
  Au      4.841933      7.410966      5.827227
  Au      7.489918      7.606816      5.068477
  Au      6.016012      9.805789      6.544406
  Au      8.599640     10.102273      5.571316
  Au      7.853169     11.307412      7.993582
  Au      6.848711      9.403610      9.671926
  Au      9.228932      8.849245      8.072466
  Au      4.407815      8.612298      8.425092
  Au      8.503507      7.068873     10.001806
  Au      5.711185      6.960421     10.320790
  Au      4.558354      5.753158      8.025767
  Au      7.103388      4.879644      8.926115
  Fe      6.809307      7.425865      7.773046
16
Coordinates from ORCA-job pbe E -3300.926005414383
  Au      9.125066      6.008230      7.399734
  Au     10.201068      7.798049      5.644754
  Au      6.688791      5.208689      6.144274
  Au      4.842274      7.411144      5.826958
  Au      7.489323      7.605705      5.066137
  Au      6.013990      9.807833      6.543337
  Au      8.598263     10.100837      5.571721
  Au      7.852435     11.306970      7.993241
  Au      6.850411      9.403122      9.672512
  Au      9.231614      8.849755      8.074231
  Au      4.408158      8.611720      8.424446
  Au      8.502554      7.067906     10.002215
  Au      5.710931      6.960312     10.320742
  Au      4.559032      5.752912      8.026429
  Au      7.103310      4.879541      8.925532
  Fe      6.810569      7.426969      7.772572
