13
E=  -1382.44328298;c=0;m=3
Au      7.033474866416620      5.688522550526570     10.185009738770869
Au      5.412842552094170      6.543186369973070      7.999880865173260
Au      8.110008608101531      6.783832698387400      7.211575401922440
Au      6.840911441977290      8.574957783550349      9.254624952875330
Au      7.044261715519140      4.175870186428330      7.903824412556310
Au     12.004088885972710      9.263644126001511      9.448936773532161
Au     11.583134413932351      6.424471336508820      9.642805819044231
Au      7.953303165238210      7.537682230425970     11.875902294213580
Au     10.546891050214260      8.265131863459960     11.607862725929730
Au     10.397560711595350      8.136761947318950      7.485954492204790
Au      9.524745123500820      4.803778374226050      9.009105721528430
Au      9.188851558384521      9.944351572911501      9.605120445541880
Fe      9.159507607052790      7.369739700281740      9.567905856706970
