11
E=  -1145.92525709;c=0;m=4
Au     10.021126415397671      6.870110181427280      9.057264015971789
Au      7.350182770900360      5.520420225338120      8.835684704987189
Au      4.210786370922150      9.657258445838320      9.369670888143080
Au      5.734201884989470      7.522798240060030      8.882127596410060
Au      9.155833759686921      9.352114749543491      8.635734215183451
Au      6.495147014976670     10.178119505141030      8.178799566147870
Au      8.349783480402680      7.151420452401280      4.934105076963130
Au      7.996747470041950      9.627319461549870      6.016522198955780
Au      9.724031833593870      4.114236764634990      8.999119608773110
Au      9.228247242177130      5.340093633145650      6.643742056628360
Mn      7.844894446911130      7.509116640920060      7.390657001836010
