11
Coordinates from ORCA-job pbe E -2509.018137706674
  Au     10.021126      6.870110      9.057264
  Au      7.350183      5.520420      8.835685
  Au      4.210786      9.657258      9.369671
  Au      5.734202      7.522798      8.882128
  Au      9.155834      9.352115      8.635734
  Au      6.495147     10.178120      8.178800
  Au      8.349783      7.151420      4.934105
  Au      7.996747      9.627319      6.016522
  Au      9.724032      4.114237      8.999120
  Au      9.228247      5.340094      6.643742
  Mn      7.844894      7.509117      7.390657
11
Coordinates from ORCA-job pbe E -2509.021668094420
  Au     10.007808      6.853077      9.059489
  Au      7.364602      5.459843      8.860845
  Au      4.170175      9.719051      9.370534
  Au      5.683855      7.534393      8.897275
  Au      9.144606      9.361261      8.661409
  Au      6.511869     10.190532      8.193453
  Au      8.354069      7.171664      4.885502
  Au      8.010357      9.636249      5.991280
  Au      9.796974      4.115671      9.007782
  Au      9.225484      5.302595      6.624563
  Mn      7.841184      7.498673      7.391295
11
Coordinates from ORCA-job pbe E -2509.023955771344
  Au      9.965032      6.859379      9.054568
  Au      7.337724      5.452679      8.896847
  Au      4.209435      9.707230      9.338933
  Au      5.679611      7.515119      8.922923
  Au      9.131916      9.376161      8.684947
  Au      6.542798     10.161517      8.215248
  Au      8.371584      7.175807      4.855885
  Au      8.020855      9.648338      5.969118
  Au      9.823844      4.153922      9.003395
  Au      9.192291      5.294471      6.604626
  Mn      7.835892      7.498385      7.396937
11
Coordinates from ORCA-job pbe E -2509.025045541542
  Au      9.926963      6.885717      9.046698
  Au      7.321548      5.457215      8.936823
  Au      4.192512      9.697981      9.330126
  Au      5.688158      7.472256      8.957708
  Au      9.144013      9.399332      8.694898
  Au      6.583079     10.132825      8.225116
  Au      8.405496      7.178339      4.836723
  Au      8.038830      9.650299      5.939840
  Au      9.814997      4.172827      8.979464
  Au      9.155735      5.295805      6.595132
  Mn      7.839653      7.500411      7.400898
11
Coordinates from ORCA-job pbe E -2509.026001486826
  Au      9.907215      6.898622      9.050370
  Au      7.334031      5.445631      8.971126
  Au      4.209831      9.684190      9.275167
  Au      5.680100      7.469119      8.995183
  Au      9.160096      9.425768      8.698050
  Au      6.595741     10.098280      8.236819
  Au      8.419664      7.195980      4.834548
  Au      8.040433      9.647218      5.929848
  Au      9.813091      4.172836      8.946096
  Au      9.114914      5.300932      6.595148
  Mn      7.835866      7.504434      7.411072
11
Coordinates from ORCA-job pbe E -2509.026698588630
  Au      9.910043      6.886236      9.059201
  Au      7.335137      5.442607      8.986355
  Au      4.194098      9.679262      9.219965
  Au      5.677747      7.461814      9.028484
  Au      9.195675      9.446363      8.687407
  Au      6.604640     10.069705      8.247004
  Au      8.415521      7.215922      4.831984
  Au      8.042320      9.653538      5.934440
  Au      9.832768      4.167245      8.943236
  Au      9.074059      5.307941      6.588718
  Mn      7.828974      7.512376      7.416632
11
Coordinates from ORCA-job pbe E -2509.027315912082
  Au      9.903058      6.889629      9.065501
  Au      7.346170      5.438412      8.998578
  Au      4.170707      9.676737      9.163630
  Au      5.668488      7.448772      9.057913
  Au      9.247843      9.451576      8.668016
  Au      6.621394     10.030073      8.258535
  Au      8.411994      7.232443      4.835285
  Au      8.047429      9.661324      5.948359
  Au      9.844512      4.181918      8.925573
  Au      9.029208      5.311041      6.595239
  Mn      7.820179      7.521083      7.426798
11
Coordinates from ORCA-job pbe E -2509.027732353445
  Au      9.901060      6.909736      9.077663
  Au      7.350441      5.442348      9.012141
  Au      4.159429      9.667267      9.116086
  Au      5.652597      7.427180      9.075141
  Au      9.291041      9.467595      8.634691
  Au      6.643289      9.982202      8.275693
  Au      8.405170      7.249051      4.841537
  Au      8.058668      9.674943      5.958767
  Au      9.852210      4.172190      8.916788
  Au      8.988294      5.314147      6.595991
  Mn      7.808785      7.536348      7.438929
11
Coordinates from ORCA-job pbe E -2509.028018514665
  Au      9.899291      6.905326      9.083699
  Au      7.360567      5.448088      9.023615
  Au      4.151075      9.656641      9.074153
  Au      5.632218      7.397505      9.083166
  Au      9.328786      9.487720      8.598197
  Au      6.663171      9.937390      8.301536
  Au      8.392732      7.256255      4.853886
  Au      8.083438      9.689666      5.964928
  Au      9.849329      4.195762      8.906124
  Au      8.951745      5.317711      6.599081
  Mn      7.798630      7.550944      7.455042
11
Coordinates from ORCA-job pbe E -2509.028247425981
  Au      9.905023      6.915571      9.072267
  Au      7.362706      5.447972      9.021868
  Au      4.150457      9.660066      9.067228
  Au      5.616595      7.388198      9.070077
  Au      9.337168      9.480057      8.594711
  Au      6.662622      9.934224      8.317979
  Au      8.376635      7.251855      4.861893
  Au      8.098863      9.697642      5.966233
  Au      9.855311      4.203651      8.915433
  Au      8.950450      5.310272      6.593414
  Mn      7.795154      7.553501      7.462326
11
Coordinates from ORCA-job pbe E -2509.028415931332
  Au      9.921904      6.919405      9.053314
  Au      7.362373      5.451410      9.024206
  Au      4.149852      9.656823      9.055098
  Au      5.603077      7.383995      9.052755
  Au      9.330791      9.481726      8.596031
  Au      6.666821      9.938622      8.328817
  Au      8.345505      7.248901      4.873342
  Au      8.119550      9.704651      5.973017
  Au      9.858248      4.203471      8.918843
  Au      8.960063      5.297928      6.593235
  Mn      7.792796      7.556076      7.474768
11
Coordinates from ORCA-job pbe E -2509.028496268217
  Au      9.935126      6.918656      9.035144
  Au      7.364806      5.452387      9.027173
  Au      4.147297      9.651043      9.036186
  Au      5.594803      7.378896      9.043378
  Au      9.334757      9.485494      8.598220
  Au      6.672212      9.940533      8.337165
  Au      8.320761      7.244718      4.885571
  Au      8.131581      9.709274      5.979794
  Au      9.857103      4.203326      8.922003
  Au      8.962147      5.300353      6.593644
  Mn      7.790389      7.558331      7.485149
11
Coordinates from ORCA-job pbe E -2509.028581462393
  Au      9.953908      6.916568      9.003557
  Au      7.366601      5.452708      9.037682
  Au      4.143690      9.640032      8.992375
  Au      5.590215      7.371460      9.040268
  Au      9.345524      9.492640      8.609734
  Au      6.679805      9.942878      8.346260
  Au      8.282249      7.248225      4.900091
  Au      8.145173      9.712415      5.990279
  Au      9.857132      4.200540      8.921756
  Au      8.959769      5.305036      6.599452
  Mn      7.786916      7.560508      7.501973
11
Coordinates from ORCA-job pbe E -2509.028618673436
  Au      9.962923      6.915273      8.988233
  Au      7.368945      5.449764      9.046703
  Au      4.142060      9.637406      8.965772
  Au      5.589257      7.369071      9.040116
  Au      9.349862      9.494302      8.620958
  Au      6.687617      9.945706      8.348022
  Au      8.267281      7.247957      4.906103
  Au      8.144316      9.711508      5.997668
  Au      9.860612      4.199624      8.918379
  Au      8.953097      5.312606      6.600649
  Mn      7.785012      7.559791      7.510825
11
Coordinates from ORCA-job pbe E -2509.028637512945
  Au      9.966501      6.915153      8.985450
  Au      7.369951      5.449034      9.052296
  Au      4.141371      9.635544      8.953968
  Au      5.592204      7.368499      9.042436
  Au      9.353046      9.494284      8.626870
  Au      6.688847      9.947982      8.347564
  Au      8.264152      7.250404      4.903764
  Au      8.141126      9.709434      6.000390
  Au      9.861134      4.198828      8.914780
  Au      8.947853      5.314722      6.602133
  Mn      7.784797      7.559126      7.513776
11
Coordinates from ORCA-job pbe E -2509.028654613807
  Au      9.969459      6.915488      8.986763
  Au      7.372062      5.448901      9.058641
  Au      4.140974      9.634167      8.944507
  Au      5.594245      7.368102      9.043060
  Au      9.354820      9.493466      8.631072
  Au      6.690401      9.950259      8.348415
  Au      8.263847      7.252102      4.899890
  Au      8.137889      9.706073      6.002576
  Au      9.862233      4.199653      8.910213
  Au      8.940349      5.316127      6.601327
  Mn      7.784703      7.558671      7.516962
11
Coordinates from ORCA-job pbe E -2509.028671531028
  Au      9.973374      6.915509      8.989361
  Au      7.375624      5.450425      9.066097
  Au      4.139713      9.631558      8.934179
  Au      5.596415      7.368171      9.042486
  Au      9.355341      9.492919      8.634503
  Au      6.691083      9.954470      8.351095
  Au      8.262398      7.252358      4.895820
  Au      8.136569      9.702185      6.005163
  Au      9.862622      4.200113      8.904215
  Au      8.932456      5.316621      6.598743
  Mn      7.785388      7.558680      7.521765
11
Coordinates from ORCA-job pbe E -2509.028683403399
  Au      9.976027      6.915407      8.991298
  Au      7.379398      5.452416      9.071385
  Au      4.138001      9.628624      8.923976
  Au      5.597485      7.368514      9.042702
  Au      9.355355      9.492570      8.635141
  Au      6.691835      9.956729      8.354920
  Au      8.259155      7.252753      4.893981
  Au      8.138351      9.699765      6.007873
  Au      9.863414      4.200893      8.899773
  Au      8.925563      5.315899      6.595593
  Mn      7.786400      7.559436      7.526783
11
Coordinates from ORCA-job pbe E -2509.028691141722
  Au      9.977605      6.914641      8.992119
  Au      7.382164      5.454713      9.074187
  Au      4.135902      9.626260      8.916960
  Au      5.598903      7.369660      9.043775
  Au      9.354088      9.492404      8.635186
  Au      6.691072      9.959455      8.357095
  Au      8.255628      7.251840      4.894452
  Au      8.140996      9.699152      6.009972
  Au      9.863775      4.199984      8.896157
  Au      8.922561      5.314846      6.593202
  Mn      7.788289      7.560052      7.530321
11
Coordinates from ORCA-job pbe E -2509.028697987008
  Au      9.978152      6.913901      8.992116
  Au      7.384456      5.456176      9.075449
  Au      4.134052      9.624176      8.910074
  Au      5.600050      7.370728      9.046454
  Au      9.353303      9.491915      8.634535
  Au      6.690741      9.959947      8.358295
  Au      8.251658      7.252635      4.896178
  Au      8.143848      9.699936      6.011610
  Au      9.864519      4.199421      8.894328
  Au      8.919742      5.313430      6.591559
  Mn      7.790461      7.560743      7.532828
11
Coordinates from ORCA-job pbe E -2509.028706642913
  Au      9.979678      6.912471      8.991738
  Au      7.386610      5.458040      9.077174
  Au      4.131832      9.621788      8.902577
  Au      5.602354      7.372106      9.049613
  Au      9.351908      9.491400      8.635448
  Au      6.689337      9.961700      8.357379
  Au      8.246629      7.252962      4.899509
  Au      8.146176      9.702026      6.013177
  Au      9.864975      4.197392      8.891392
  Au      8.917226      5.311896      6.590312
  Mn      7.794258      7.561228      7.535109
11
Coordinates from ORCA-job pbe E -2509.028717887634
  Au      9.981526      6.911223      8.992077
  Au      7.388637      5.458984      9.078902
  Au      4.130151      9.619565      8.894930
  Au      5.604583      7.372992      9.052852
  Au      9.351225      9.490262      8.637144
  Au      6.688389      9.961514      8.354596
  Au      8.241097      7.255310      4.903477
  Au      8.147572      9.705483      6.013945
  Au      9.865918      4.196260      8.889220
  Au      8.912621      5.309661      6.589619
  Mn      7.799265      7.561756      7.536665
11
Coordinates from ORCA-job pbe E -2509.028729955356
  Au      9.985098      6.910288      8.993819
  Au      7.390193      5.459689      9.081668
  Au      4.129222      9.617497      8.889230
  Au      5.606912      7.372864      9.053146
  Au      9.350938      9.489671      8.640994
  Au      6.687148      9.961467      8.349875
  Au      8.235685      7.257267      4.907117
  Au      8.147533      9.709280      6.013855
  Au      9.866487      4.195382      8.886402
  Au      8.906292      5.307313      6.589350
  Mn      7.805476      7.562290      7.537972
11
Coordinates from ORCA-job pbe E -2509.028739693430
  Au      9.987517      6.910823      8.997558
  Au      7.390937      5.459115      9.083323
  Au      4.129599      9.617136      8.889014
  Au      5.607287      7.371736      9.049889
  Au      9.351508      9.489522      8.644401
  Au      6.686669      9.959374      8.345715
  Au      8.232546      7.258849      4.908235
  Au      8.147338      9.711693      6.012616
  Au      9.867685      4.196951      8.885124
  Au      8.899456      5.304926      6.589250
  Mn      7.810440      7.562883      7.538302
11
Coordinates from ORCA-job pbe E -2509.028746925992
  Au      9.989585      6.912079      9.001292
  Au      7.391219      5.458954      9.084294
  Au      4.130276      9.616843      8.892203
  Au      5.607464      7.370333      9.043946
  Au      9.351558      9.490841      8.648045
  Au      6.685922      9.957957      8.342655
  Au      8.229977      7.258556      4.907370
  Au      8.148543      9.712235      6.011689
  Au      9.868348      4.199064      8.884474
  Au      8.893419      5.302619      6.588802
  Mn      7.814673      7.563526      7.538656
11
Coordinates from ORCA-job pbe E -2509.028752124960
  Au      9.988642      6.914257      9.005309
  Au      7.390782      5.458041      9.082725
  Au      4.131107      9.618602      8.899488
  Au      5.606218      7.369696      9.038096
  Au      9.351163      9.492600      8.650029
  Au      6.685139      9.955413      8.340865
  Au      8.229243      7.256773      4.905430
  Au      8.151365      9.711026      6.010758
  Au      9.870115      4.202075      8.884705
  Au      8.890159      5.300667      6.588174
  Mn      7.817049      7.563857      7.537849
11
Coordinates from ORCA-job pbe E -2509.028755677542
  Au      9.988985      6.915818      9.006381
  Au      7.390726      5.458586      9.081320
  Au      4.130958      9.618044      8.902880
  Au      5.607262      7.369643      9.034200
  Au      9.349752      9.495616      8.653218
  Au      6.683918      9.954963      8.339739
  Au      8.226174      7.254881      4.903792
  Au      8.155701      9.709007      6.011692
  Au      9.870408      4.203761      8.884808
  Au      8.887023      5.298464      6.587245
  Mn      7.820075      7.564226      7.538151
11
Coordinates from ORCA-job pbe E -2509.028757914647
  Au      9.986372      6.917645      9.007016
  Au      7.389727      5.457780      9.077912
  Au      4.130865      9.620096      8.907494
  Au      5.606528      7.370573      9.033789
  Au      9.348716      9.497601      8.654013
  Au      6.683118      9.953415      8.339576
  Au      8.225945      7.252309      4.902806
  Au      8.159383      9.706583      6.012304
  Au      9.871910      4.205444      8.885003
  Au      8.888140      5.297675      6.586509
  Mn      7.820280      7.563887      7.537004
11
Coordinates from ORCA-job pbe E -2509.028758845706
  Au      9.986841      6.917926      9.005450
  Au      7.389717      5.458065      9.077309
  Au      4.130209      9.619454      8.904995
  Au      5.607376      7.371042      9.035772
  Au      9.348308      9.498633      8.655341
  Au      6.682916      9.953746      8.339692
  Au      8.224316      7.252077      4.903220
  Au      8.160902      9.705775      6.013505
  Au      9.871851      4.205434      8.884485
  Au      8.887659      5.297073      6.586199
  Mn      7.820888      7.563782      7.537459
11
Coordinates from ORCA-job pbe E -2509.028759132344
  Au      9.987195      6.918108      9.004506
  Au      7.389454      5.457965      9.076965
  Au      4.130051      9.619421      8.903599
  Au      5.607455      7.371237      9.037313
  Au      9.348285      9.498729      8.655997
  Au      6.683039      9.953949      8.339745
  Au      8.224065      7.252022      4.903576
  Au      8.160989      9.705494      6.013941
  Au      9.871842      4.205590      8.884253
  Au      8.887850      5.296933      6.586029
  Mn      7.820757      7.563559      7.537503
