!SC-NEVPT2 def2-TZVP def2-TZVP/C
!MOREAD RIJCOSX def2/J
%maxcore 4000
%moinp "casscf.gbw"
%pal nprocs 2 end 

%casscf
 mult 5,3
 bweight 1,1
 nroots 5,45
 nel 6
 norb 5
 ptsettings
  d4tpre 1e-14 # default = 1e-10
  d3tpre 1e-14
 end
 rel           
   dosoc true   
   gtensor true 
 end           
end


*xyzfile 0 5 pbe.xyz

