13
E=  -1382.49060735;c=0;m=3
Au      7.844865918314310      7.654884025785420      6.649386045975710
Au      6.439064449976400      5.279941692076570      6.845353954028090
Au      9.223584586030890      5.213771631286010      7.762613280024670
Au     11.770247094503739      8.773306880127180      8.855935775333620
Au      9.423257848456860      9.764536497928811      7.369927608926330
Au     10.760354124152730      7.197583580184480      6.800973692895750
Au     10.752322030723381      7.552061472705450     11.171558774943470
Au      9.618543767107781     10.078096503647711     10.154150462496000
Au      7.865695170278100      8.159290532322821     11.141882596114810
Au      9.038539225692309      5.497876265556480     10.619546506603561
Au      7.291486646315130      3.884836022427870      9.205236876722211
Au      6.729683673277520      6.762181092906530      9.146917081908921
Fe      9.316966345170860      7.683507333044720      8.972898984026809
