13
Coordinates from ORCA-job pbe E -2893.390419401277
  Au      7.844866      7.654884      6.649386
  Au      6.439064      5.279942      6.845354
  Au      9.223585      5.213772      7.762613
  Au     11.770247      8.773307      8.855936
  Au      9.423258      9.764536      7.369928
  Au     10.760354      7.197584      6.800974
  Au     10.752322      7.552061     11.171559
  Au      9.618544     10.078097     10.154150
  Au      7.865695      8.159291     11.141883
  Au      9.038539      5.497876     10.619547
  Au      7.291487      3.884836      9.205237
  Au      6.729684      6.762181      9.146917
  Fe      9.316966      7.683507      8.972899
13
Coordinates from ORCA-job pbe E -2893.390382032759
  Au      7.851605      7.633292      6.660324
  Au      6.490429      5.301569      6.861242
  Au      9.207524      5.233182      7.775658
  Au     11.744236      8.768896      8.860296
  Au      9.408456      9.759805      7.373410
  Au     10.749399      7.194234      6.790343
  Au     10.753253      7.538363     11.162408
  Au      9.621946     10.054446     10.141510
  Au      7.862710      8.145325     11.146677
  Au      9.019518      5.504264     10.604122
  Au      7.302090      3.941465      9.213611
  Au      6.755810      6.755437      9.137550
  Fe      9.307634      7.671595      8.969229
13
Coordinates from ORCA-job pbe E -2893.391239071033
  Au      7.858281      7.645154      6.649590
  Au      6.483154      5.280237      6.828962
  Au      9.213307      5.231582      7.773452
  Au     11.739478      8.774288      8.860699
  Au      9.406731      9.767521      7.377562
  Au     10.753454      7.204850      6.784269
  Au     10.762264      7.539237     11.160876
  Au      9.627868     10.050994     10.141575
  Au      7.869812      8.148842     11.157070
  Au      9.025459      5.508641     10.620230
  Au      7.275308      3.919759      9.232490
  Au      6.752199      6.759686      9.140502
  Fe      9.307295      7.671083      8.969105
13
Coordinates from ORCA-job pbe E -2893.391398255857
  Au      7.860624      7.647580      6.642068
  Au      6.493130      5.270127      6.819113
  Au      9.206877      5.232369      7.777594
  Au     11.749445      8.768080      8.848581
  Au      9.402904      9.773609      7.375060
  Au     10.756065      7.214370      6.778072
  Au     10.768426      7.535551     11.164090
  Au      9.615773     10.054914     10.152820
  Au      7.876027      8.150365     11.166803
  Au      9.024708      5.508579     10.628552
  Au      7.260605      3.924015      9.240578
  Au      6.755940      6.755395      9.135215
  Fe      9.304086      7.666920      8.967836
13
Coordinates from ORCA-job pbe E -2893.391542003504
  Au      7.864913      7.649133      6.632643
  Au      6.509533      5.264974      6.808256
  Au      9.205235      5.241201      7.782287
  Au     11.742005      8.768770      8.845422
  Au      9.399294      9.777467      7.379477
  Au     10.750148      7.216277      6.770882
  Au     10.774601      7.534120     11.160280
  Au      9.616934     10.047067     10.153655
  Au      7.877461      8.142468     11.172358
  Au      9.022107      5.509497     10.638953
  Au      7.248220      3.934680      9.253031
  Au      6.765973      6.756945      9.133619
  Fe      9.298189      7.659276      8.965520
13
Coordinates from ORCA-job pbe E -2893.391611945234
  Au      7.867400      7.654574      6.621669
  Au      6.522747      5.261462      6.803967
  Au      9.202866      5.243369      7.790121
  Au     11.731624      8.770434      8.840958
  Au      9.399968      9.777997      7.386005
  Au     10.746945      7.221038      6.765227
  Au     10.777091      7.536997     11.154541
  Au      9.619248     10.036112     10.155218
  Au      7.881333      8.137926     11.178357
  Au      9.023340      5.508727     10.651457
  Au      7.239912      3.945071      9.259336
  Au      6.770957      6.758002      9.126768
  Fe      9.291178      7.650165      8.962759
13
Coordinates from ORCA-job pbe E -2893.391649262388
  Au      7.866441      7.656832      6.616358
  Au      6.524602      5.265127      6.804485
  Au      9.207013      5.242917      7.793653
  Au     11.732319      8.771272      8.838042
  Au      9.401578      9.777435      7.388365
  Au     10.742576      7.217969      6.763887
  Au     10.776805      7.539313     11.152565
  Au      9.618671     10.035751     10.158264
  Au      7.879435      8.132708     11.177401
  Au      9.024384      5.506160     10.656549
  Au      7.242725      3.947705      9.260770
  Au      6.770442      6.763147      9.124690
  Fe      9.287618      7.645538      8.961353
13
Coordinates from ORCA-job pbe E -2893.391681724653
  Au      7.866235      7.660174      6.613525
  Au      6.524203      5.270772      6.808111
  Au      9.213356      5.236835      7.797415
  Au     11.732702      8.771891      8.835181
  Au      9.403243      9.775835      7.391473
  Au     10.739704      7.215150      6.763619
  Au     10.775638      7.541843     11.149627
  Au      9.617924     10.035070     10.161029
  Au      7.877657      8.129220     11.176126
  Au      9.027257      5.505233     10.659855
  Au      7.248679      3.949664      9.259543
  Au      6.764227      6.769643      9.121043
  Fe      9.283785      7.640544      8.959835
13
Coordinates from ORCA-job pbe E -2893.391697357216
  Au      7.867245      7.661379      6.613143
  Au      6.525757      5.274066      6.809554
  Au      9.219069      5.230934      7.799204
  Au     11.731609      8.771527      8.833026
  Au      9.402795      9.776453      7.394161
  Au     10.738975      7.214062      6.763242
  Au     10.777053      7.542663     11.147288
  Au      9.616913     10.033119     10.162503
  Au      7.876810      8.127946     11.176078
  Au      9.028356      5.505919     10.660427
  Au      7.251444      3.952350      9.260128
  Au      6.757851      6.774877      9.119019
  Fe      9.280735      7.636577      8.958609
13
Coordinates from ORCA-job pbe E -2893.391705785808
  Au      7.869537      7.661723      6.614631
  Au      6.528658      5.275231      6.810439
  Au      9.223544      5.226578      7.798955
  Au     11.729757      8.771135      8.831417
  Au      9.400931      9.777822      7.395838
  Au     10.739161      7.213104      6.762985
  Au     10.779307      7.541825     11.145813
  Au      9.616189     10.030822     10.163106
  Au      7.876014      8.127583     11.176422
  Au      9.029130      5.508655     10.659794
  Au      7.251482      3.955585      9.260417
  Au      6.752621      6.778429      9.118907
  Fe      9.278280      7.633382      8.957657
13
Coordinates from ORCA-job pbe E -2893.391708303551
  Au      7.870359      7.661191      6.615686
  Au      6.530088      5.274783      6.810396
  Au      9.225136      5.225275      7.797427
  Au     11.728321      8.770802      8.831048
  Au      9.400229      9.779080      7.396039
  Au     10.740463      7.213202      6.762900
  Au     10.780894      7.541664     11.145800
  Au      9.616053     10.029164     10.163200
  Au      7.875650      8.128573     11.176805
  Au      9.028379      5.509310     10.658259
  Au      7.250994      3.957173      9.261282
  Au      6.750665      6.779386      9.120285
  Fe      9.277379      7.632269      8.957255
13
Coordinates from ORCA-job pbe E -2893.391709091345
  Au      7.870552      7.660447      6.616725
  Au      6.530426      5.274785      6.810537
  Au      9.224945      5.225703      7.795816
  Au     11.727857      8.770919      8.831076
  Au      9.400320      9.779146      7.395573
  Au     10.741287      7.212910      6.763118
  Au     10.780754      7.541372     11.146405
  Au      9.616068     10.028993     10.162712
  Au      7.875538      8.129260     11.177177
  Au      9.028726      5.510302     10.657801
  Au      7.250332      3.957279      9.260531
  Au      6.750565      6.778674      9.121643
  Fe      9.277243      7.632082      8.957268
