19
E=  -2035.06316961;c=0;m=5
Au      4.972665712932740      8.136111464350780      6.405125496354670
Au      4.757603005966440      9.811414339127040      8.897855624104940
Au      7.717847712420510      7.982093904339330      5.844980346455710
Au      6.510370579722630     10.461026126822610      6.727272572475960
Au      9.244181548141089      6.978869881501740      8.065053411333979
Au      9.245935712767650      9.815024496131880      7.536191972845990
Au      9.044282389607680      8.715643105299179     10.349387476454590
Au      6.330846402138310      8.887217661423360     11.167977139513200
Au      7.353625194073900     10.860334199656339      9.446578789673080
Au      2.518558956049060      7.244873279398250      5.550288048657910
Au      7.605577171738650      6.270198507385330     10.236497617060220
Au      5.657046181360480      6.396311379670640     12.230121011792420
Au      6.662692272528690      5.900259702276460      7.505893427100790
Au      3.786276559977270      7.844757647682600     10.696268216204309
Au      2.328731679043860      5.682076521840860      9.681917381434410
Au      3.891316320400590      5.564307303700620      7.270124293119450
Au      5.081922575178170      5.185047774325160      9.749779700754530
Au      2.650590955637270      8.111575121590009      8.176828576998769
Fe      7.058878350315040      8.427069853477750      8.442806817665080
