13
E=  -1353.67153298;c=0;m=3
Au      5.431640217308100      4.473804907532770      8.662915301339730
Au      7.987939278339750      6.878576203791630      6.269126067449850
Au     10.270393066737491      5.585459872675480      7.615570447892770
Au     10.312474941170439      8.234100192011191      7.343737377762100
Au      7.017129586797030      4.248701872895520      6.130891466693990
Au      8.645664629093069      6.200155468340510     10.484499990054220
Au      7.716336060821490      3.686615277648540     10.322999334089280
Au      9.195740655181940      3.128206849572280      7.854444655075450
Au      9.433954003871021      8.662794267758310     10.065005541633180
Au      9.799609823142520     10.739390773504770      8.292055130663870
Au      6.083649404732340      7.081937172637150      8.511408990977611
Au      7.566560900011780      9.215893259743901      7.927871660129860
Cr      7.838700302793000      5.242915931887960      8.303635986238101
