13
Coordinates from ORCA-job pbe E -2674.134919203867
  Au      5.431640      4.473805      8.662915
  Au      7.987939      6.878576      6.269126
  Au     10.270393      5.585460      7.615570
  Au     10.312475      8.234100      7.343737
  Au      7.017130      4.248702      6.130891
  Au      8.645665      6.200155     10.484500
  Au      7.716336      3.686615     10.322999
  Au      9.195741      3.128207      7.854445
  Au      9.433954      8.662794     10.065006
  Au      9.799610     10.739391      8.292055
  Au      6.083649      7.081937      8.511409
  Au      7.566561      9.215893      7.927872
  Cr      7.838700      5.242916      8.303636
13
Coordinates from ORCA-job pbe E -2674.137663570476
  Au      5.419158      4.466916      8.667080
  Au      7.998681      6.898428      6.287435
  Au     10.299352      5.603236      7.622331
  Au     10.286220      8.214639      7.345042
  Au      7.030026      4.298746      6.108406
  Au      8.659447      6.212395     10.528474
  Au      7.695846      3.633217     10.317710
  Au      9.202101      3.115272      7.854717
  Au      9.427936      8.664538     10.033282
  Au      9.784884     10.719585      8.255925
  Au      6.076675      7.112267      8.525859
  Au      7.573800      9.183954      7.921973
  Cr      7.845667      5.255361      8.315928
13
Coordinates from ORCA-job pbe E -2674.139037590668
  Au      5.407259      4.456067      8.678794
  Au      8.005457      6.919471      6.284528
  Au     10.336788      5.572504      7.611890
  Au     10.281695      8.223212      7.337779
  Au      7.032302      4.318074      6.089330
  Au      8.663521      6.186775     10.587765
  Au      7.680723      3.594477     10.314617
  Au      9.208238      3.098381      7.862575
  Au      9.427226      8.675495     10.013829
  Au      9.799226     10.773575      8.233528
  Au      6.028558      7.111865      8.533952
  Au      7.579672      9.188189      7.912002
  Cr      7.849129      5.260466      8.323572
13
Coordinates from ORCA-job pbe E -2674.140752436502
  Au      5.418839      4.482900      8.700343
  Au      8.006935      6.936054      6.263969
  Au     10.361420      5.560653      7.567603
  Au     10.262071      8.198096      7.345336
  Au      7.033989      4.324996      6.088469
  Au      8.670969      6.190278     10.614449
  Au      7.699112      3.642391     10.323335
  Au      9.224550      3.124044      7.883208
  Au      9.398999      8.607746      9.996469
  Au      9.792724     10.737292      8.264517
  Au      5.988298      7.122723      8.503683
  Au      7.581333      9.155642      7.914634
  Cr      7.860553      5.295737      8.318146
13
Coordinates from ORCA-job pbe E -2674.141688648409
  Au      5.439796      4.496316      8.717625
  Au      7.998755      6.926266      6.240428
  Au     10.381458      5.555419      7.533094
  Au     10.254215      8.184750      7.349503
  Au      7.044255      4.348239      6.099926
  Au      8.669242      6.159463     10.652606
  Au      7.703630      3.662976     10.313547
  Au      9.224462      3.145061      7.905118
  Au      9.387789      8.589078      9.976738
  Au      9.783732     10.704276      8.280697
  Au      5.959082      7.135542      8.479542
  Au      7.580228      9.140438      7.917265
  Cr      7.873150      5.330729      8.318073
13
Coordinates from ORCA-job pbe E -2674.142491813528
  Au      5.470546      4.508535      8.744744
  Au      7.984810      6.910408      6.200685
  Au     10.400833      5.549088      7.479349
  Au     10.256164      8.164112      7.336915
  Au      7.054694      4.363339      6.125633
  Au      8.674768      6.144424     10.697928
  Au      7.698031      3.661170     10.293905
  Au      9.220884      3.170038      7.940193
  Au      9.376461      8.547877      9.991422
  Au      9.788402     10.701887      8.307618
  Au      5.921542      7.149370      8.437314
  Au      7.561601      9.128230      7.908996
  Cr      7.891058      5.380075      8.319460
13
Coordinates from ORCA-job pbe E -2674.143780791270
  Au      5.499299      4.518111      8.766628
  Au      7.983880      6.925729      6.169659
  Au     10.406990      5.536168      7.423972
  Au     10.246056      8.177308      7.329670
  Au      7.057966      4.347156      6.168816
  Au      8.679811      6.128752     10.740075
  Au      7.683996      3.633761     10.275338
  Au      9.214582      3.191267      7.971710
  Au      9.368855      8.524575      9.990590
  Au      9.786275     10.681314      8.334066
  Au      5.888351      7.150259      8.389658
  Au      7.573235      9.134176      7.897313
  Cr      7.910497      5.429974      8.326665
13
Coordinates from ORCA-job pbe E -2674.144903588145
  Au      5.511837      4.529948      8.758145
  Au      7.988183      6.946905      6.156172
  Au     10.395730      5.546191      7.373109
  Au     10.232652      8.181246      7.313807
  Au      7.061332      4.316108      6.232686
  Au      8.677381      6.094815     10.779436
  Au      7.678522      3.610427     10.285335
  Au      9.209644      3.208190      7.970869
  Au      9.364867      8.505309      9.996575
  Au      9.787175     10.671181      8.355087
  Au      5.882701      7.158781      8.337008
  Au      7.577658      9.131297      7.878588
  Cr      7.932111      5.478154      8.347345
13
Coordinates from ORCA-job pbe E -2674.145688617724
  Au      5.525048      4.530307      8.757532
  Au      7.978152      6.937418      6.131969
  Au     10.388189      5.552529      7.324222
  Au     10.227573      8.190217      7.308087
  Au      7.069693      4.304702      6.282410
  Au      8.679744      6.085761     10.804593
  Au      7.675984      3.599048     10.294125
  Au      9.201760      3.218214      7.975606
  Au      9.354081      8.473423      9.991032
  Au      9.789929     10.655644      8.388872
  Au      5.872117      7.166961      8.287023
  Au      7.584169      9.136742      7.871731
  Cr      7.953352      5.527587      8.366960
13
Coordinates from ORCA-job pbe E -2674.146242523994
  Au      5.542030      4.540501      8.758004
  Au      7.971162      6.928589      6.119061
  Au     10.382452      5.553234      7.280573
  Au     10.217856      8.187114      7.295440
  Au      7.085546      4.318144      6.317047
  Au      8.683546      6.067868     10.841356
  Au      7.671236      3.590425     10.290969
  Au      9.193237      3.231954      7.988448
  Au      9.339579      8.435558      9.978818
  Au      9.789595     10.644599      8.411043
  Au      5.860264      7.167561      8.247377
  Au      7.583487      9.129552      7.860792
  Cr      7.979803      5.583451      8.395231
13
Coordinates from ORCA-job pbe E -2674.146479732613
  Au      5.556767      4.532580      8.774547
  Au      7.963243      6.922800      6.107384
  Au     10.378168      5.542234      7.252207
  Au     10.216474      8.181529      7.286152
  Au      7.095941      4.334743      6.332123
  Au      8.681615      6.054759     10.878635
  Au      7.669218      3.595706     10.296597
  Au      9.195178      3.251030      7.980268
  Au      9.323881      8.399451      9.963399
  Au      9.793441     10.631338      8.431615
  Au      5.845716      7.172041      8.207192
  Au      7.580196      9.128114      7.849489
  Cr      7.999955      5.632228      8.424556
13
Coordinates from ORCA-job pbe E -2674.146505426025
  Au      5.557084      4.557943      8.749751
  Au      7.960527      6.920894      6.097276
  Au     10.377736      5.546591      7.210869
  Au     10.216217      8.181155      7.269861
  Au      7.109861      4.348579      6.337189
  Au      8.692675      6.039879     10.914039
  Au      7.677676      3.601079     10.300719
  Au      9.182021      3.242820      8.013644
  Au      9.312027      8.367378      9.947419
  Au      9.788086     10.619222      8.447813
  Au      5.830217      7.157026      8.196094
  Au      7.571515      9.125937      7.848154
  Cr      8.024150      5.670049      8.451335
13
Coordinates from ORCA-job pbe E -2674.146739400425
  Au      5.561736      4.547598      8.761138
  Au      7.965315      6.930439      6.100318
  Au     10.380099      5.540405      7.225767
  Au     10.218611      8.180201      7.272606
  Au      7.104381      4.344423      6.338642
  Au      8.689854      6.041437     10.915890
  Au      7.671819      3.597450     10.293936
  Au      9.185060      3.250083      7.997875
  Au      9.314343      8.375869      9.951107
  Au      9.785992     10.618896      8.437085
  Au      5.834421      7.164788      8.197967
  Au      7.570430      9.126484      7.845105
  Cr      8.017731      5.660480      8.446727
13
Coordinates from ORCA-job pbe E -2674.146797474863
  Au      5.562960      4.544150      8.758716
  Au      7.965855      6.935644      6.102154
  Au     10.379344      5.539774      7.228124
  Au     10.222090      8.176936      7.269468
  Au      7.105543      4.349180      6.339312
  Au      8.689423      6.042201     10.930230
  Au      7.672153      3.597729     10.294227
  Au      9.186793      3.255588      7.989882
  Au      9.312090      8.369707      9.946628
  Au      9.786383     10.612372      8.431464
  Au      5.830797      7.163498      8.197171
  Au      7.568159      9.129141      7.842759
  Cr      8.018205      5.662632      8.454027
13
Coordinates from ORCA-job pbe E -2674.146867560655
  Au      5.572187      4.538968      8.757906
  Au      7.973565      6.950227      6.100192
  Au     10.383762      5.529893      7.221503
  Au     10.232442      8.177729      7.261881
  Au      7.107887      4.363474      6.337777
  Au      8.697480      6.037779     10.965222
  Au      7.672979      3.608998     10.292539
  Au      9.175455      3.255151      7.988388
  Au      9.299266      8.347288      9.931983
  Au      9.775220     10.599724      8.427574
  Au      5.828479      7.166377      8.193242
  Au      7.554999      9.130936      7.837659
  Cr      8.026072      5.672008      8.468294
13
Coordinates from ORCA-job pbe E -2674.146926584874
  Au      5.571680      4.536671      8.747661
  Au      7.972800      6.951289      6.103220
  Au     10.378668      5.534215      7.218724
  Au     10.236443      8.176577      7.257033
  Au      7.111350      4.367626      6.341992
  Au      8.698073      6.037594     10.978146
  Au      7.676222      3.610448     10.296792
  Au      9.172581      3.256138      7.984849
  Au      9.295307      8.338061      9.922677
  Au      9.778121     10.597151      8.427752
  Au      5.827144      7.161694      8.191413
  Au      7.553165      9.135825      7.836075
  Cr      8.028238      5.675263      8.477827
13
Coordinates from ORCA-job pbe E -2674.146964941623
  Au      5.571456      4.534035      8.742013
  Au      7.973888      6.951826      6.107578
  Au     10.373697      5.537283      7.216875
  Au     10.240744      8.178856      7.252740
  Au      7.114325      4.373554      6.342739
  Au      8.700339      6.037144     10.987113
  Au      7.677885      3.612990     10.299817
  Au      9.168198      3.253273      7.985301
  Au      9.289545      8.328351      9.911107
  Au      9.778982     10.597510      8.429681
  Au      5.830138      7.158081      8.191045
  Au      7.550914      9.140660      7.834030
  Cr      8.029682      5.674987      8.484124
13
Coordinates from ORCA-job pbe E -2674.146998431656
  Au      5.571329      4.533616      8.739340
  Au      7.976508      6.953536      6.112244
  Au     10.367180      5.539794      7.213596
  Au     10.245754      8.184366      7.247030
  Au      7.116444      4.376306      6.346585
  Au      8.703042      6.034362     10.996490
  Au      7.678776      3.615413     10.302672
  Au      9.165009      3.251490      7.986138
  Au      9.281670      8.315240      9.897801
  Au      9.778521     10.597622      8.434943
  Au      5.836368      7.155950      8.187950
  Au      7.548016      9.146999      7.829538
  Cr      8.031177      5.673858      8.489835
13
Coordinates from ORCA-job pbe E -2674.147041302511
  Au      5.571791      4.531077      8.744766
  Au      7.979243      6.957283      6.118678
  Au     10.358653      5.546624      7.210372
  Au     10.252825      8.192169      7.236675
  Au      7.118939      4.380660      6.349963
  Au      8.703767      6.028255     11.009713
  Au      7.678582      3.615695     10.302386
  Au      9.165731      3.251605      7.992454
  Au      9.269651      8.293694      9.876788
  Au      9.780578     10.595531      8.443710
  Au      5.843196      7.154801      8.182646
  Au      7.545485      9.159190      7.820317
  Cr      8.031351      5.671969      8.495693
13
Coordinates from ORCA-job pbe E -2674.147114349013
  Au      5.569231      4.545720      8.753218
  Au      7.986669      6.959513      6.130172
  Au     10.343002      5.553991      7.197855
  Au     10.264423      8.213525      7.213189
  Au      7.124235      4.386949      6.366518
  Au      8.710888      6.011186     11.041002
  Au      7.672721      3.608998     10.304671
  Au      9.173460      3.256136      7.998837
  Au      9.241929      8.245745      9.835040
  Au      9.774735     10.588207      8.465394
  Au      5.863275      7.156794      8.167384
  Au      7.537339      9.178919      7.797258
  Cr      8.037885      5.672871      8.513624
13
Coordinates from ORCA-job pbe E -2674.147249843847
  Au      5.569446      4.561946      8.774980
  Au      7.989248      6.964179      6.132524
  Au     10.333454      5.568436      7.180096
  Au     10.271971      8.232025      7.186351
  Au      7.126954      4.383805      6.388256
  Au      8.710013      5.987547     11.070145
  Au      7.668291      3.600878     10.303153
  Au      9.192434      3.269800      8.015394
  Au      9.213073      8.189146      9.795220
  Au      9.776008     10.573272      8.496554
  Au      5.871957      7.164998      8.145340
  Au      7.534041      9.201888      7.770536
  Cr      8.042903      5.680631      8.525612
13
Coordinates from ORCA-job pbe E -2674.146913941210
  Au      5.558649      4.568063      8.754990
  Au      7.981514      6.951827      6.121320
  Au     10.361904      5.555539      7.212331
  Au     10.257761      8.215312      7.201158
  Au      7.126127      4.400331      6.357310
  Au      8.718983      6.018715     11.066687
  Au      7.667207      3.589419     10.302228
  Au      9.193276      3.260456      7.998728
  Au      9.226071      8.225736      9.799800
  Au      9.775043     10.582857      8.476374
  Au      5.860562      7.169048      8.188216
  Au      7.536476      9.178052      7.787944
  Cr      8.036220      5.663198      8.517075
13
Coordinates from ORCA-job pbe E -2674.147416677538
  Au      5.559955      4.590184      8.798092
  Au      7.976535      6.955670      6.112740
  Au     10.358356      5.587118      7.204401
  Au     10.255353      8.237110      7.176057
  Au      7.114893      4.353497      6.392706
  Au      8.695295      5.980491     11.048273
  Au      7.666220      3.584027     10.294763
  Au      9.232964      3.287915      8.022468
  Au      9.208898      8.177110      9.794690
  Au      9.784108     10.560069      8.513406
  Au      5.868841      7.192155      8.165508
  Au      7.548586      9.207905      7.757950
  Cr      8.029790      5.665302      8.503107
13
Coordinates from ORCA-job pbe E -2674.147604878252
  Au      5.564895      4.606549      8.816417
  Au      7.976440      6.952670      6.116230
  Au     10.354084      5.600263      7.186294
  Au     10.255460      8.253186      7.149110
  Au      7.123576      4.360083      6.416786
  Au      8.692718      5.947706     11.079500
  Au      7.656154      3.562995     10.285221
  Au      9.243816      3.300027      8.041310
  Au      9.185828      8.134815      9.761886
  Au      9.784639     10.551399      8.533854
  Au      5.873650      7.200915      8.146887
  Au      7.548243      9.223663      7.730806
  Cr      8.040289      5.684280      8.519863
13
Coordinates from ORCA-job pbe E -2674.147659453861
  Au      5.556939      4.627337      8.834510
  Au      7.977499      6.946203      6.124484
  Au     10.352062      5.612833      7.191636
  Au     10.256806      8.272446      7.129731
  Au      7.122744      4.355342      6.423750
  Au      8.689996      5.932476     11.080401
  Au      7.649678      3.548357     10.282663
  Au      9.266536      3.308018      8.050492
  Au      9.167745      8.104562      9.735870
  Au      9.784124     10.545295      8.551772
  Au      5.887827      7.210682      8.148427
  Au      7.550355      9.240410      7.709409
  Cr      8.037483      5.674592      8.521016
13
Coordinates from ORCA-job pbe E -2674.147700370952
  Au      5.551273      4.635967      8.838237
  Au      7.974701      6.934116      6.128522
  Au     10.360521      5.618216      7.211294
  Au     10.249964      8.278304      7.125565
  Au      7.119197      4.346825      6.418013
  Au      8.685083      5.929320     11.059667
  Au      7.643971      3.534112     10.276332
  Au      9.274872      3.307210      8.051026
  Au      9.173854      8.119691      9.742691
  Au      9.787102     10.555550      8.549196
  Au      5.892660      7.217264      8.168022
  Au      7.555710      9.240693      7.703719
  Cr      8.030886      5.661283      8.511878
13
Coordinates from ORCA-job pbe E -2674.147742674125
  Au      5.551483      4.643516      8.841053
  Au      7.973050      6.930443      6.127647
  Au     10.367975      5.625775      7.220098
  Au     10.247547      8.283202      7.115290
  Au      7.117893      4.339683      6.422038
  Au      8.681626      5.922492     11.059927
  Au      7.641436      3.528386     10.271617
  Au      9.281072      3.313175      8.052030
  Au      9.168516      8.108819      9.733984
  Au      9.787888     10.550159      8.555214
  Au      5.893039      7.225792      8.176965
  Au      7.557232      9.245180      7.694227
  Cr      8.031038      5.661931      8.514074
13
Coordinates from ORCA-job pbe E -2674.147777118172
  Au      5.551510      4.646581      8.837210
  Au      7.971470      6.925214      6.129867
  Au     10.377535      5.635914      7.239562
  Au     10.245926      8.288845      7.102743
  Au      7.116560      4.333829      6.422685
  Au      8.678499      5.918712     11.061416
  Au      7.639768      3.525233     10.266324
  Au      9.282376      3.316874      8.047641
  Au      9.162960      8.097010      9.720557
  Au      9.788027     10.544565      8.557416
  Au      5.896399      7.235724      8.196250
  Au      7.558213      9.250413      7.683963
  Cr      8.030547      5.659637      8.518528
13
Coordinates from ORCA-job pbe E -2674.147789001975
  Au      5.550549      4.644557      8.831880
  Au      7.971121      6.922497      6.132885
  Au     10.381337      5.639787      7.252384
  Au     10.245867      8.291737      7.097811
  Au      7.115487      4.331826      6.420325
  Au      8.678005      5.920242     11.061587
  Au      7.639996      3.526607     10.264825
  Au      9.279800      3.315469      8.043165
  Au      9.161879      8.093709      9.713131
  Au      9.788232     10.545149      8.557168
  Au      5.899871      7.238768      8.208523
  Au      7.558247      9.252311      7.680788
  Cr      8.029401      5.655892      8.519690
13
Coordinates from ORCA-job pbe E -2674.147796600404
  Au      5.549342      4.641079      8.826562
  Au      7.971023      6.920832      6.136185
  Au     10.383326      5.641773      7.263290
  Au     10.245914      8.294056      7.094675
  Au      7.114595      4.331383      6.417457
  Au      8.678053      5.923057     11.062572
  Au      7.640605      3.529776     10.263774
  Au      9.276591      3.313036      8.039176
  Au      9.162425      8.091406      9.706687
  Au      9.788231     10.546637      8.556335
  Au      5.903233      7.239445      8.218165
  Au      7.558085      9.253148      7.679681
  Cr      8.028370      5.652925      8.519603
13
Coordinates from ORCA-job pbe E -2674.147799997296
  Au      5.548554      4.639520      8.824646
  Au      7.970697      6.920171      6.137038
  Au     10.383854      5.642072      7.267052
  Au     10.245502      8.295039      7.093396
  Au      7.114169      4.331008      6.416853
  Au      8.677854      5.924348     11.063508
  Au      7.640782      3.531794     10.263098
  Au      9.275647      3.312032      8.038052
  Au      9.164053      8.090161      9.704612
  Au      9.788238     10.547370      8.556598
  Au      5.904134      7.238917      8.220707
  Au      7.558082      9.252886      7.680056
  Cr      8.028227      5.653235      8.518545
13
Coordinates from ORCA-job pbe E -2674.147802867140
  Au      5.547670      4.638576      8.823716
  Au      7.970068      6.919724      6.136711
  Au     10.384488      5.642322      7.269772
  Au     10.244594      8.295594      7.091912
  Au      7.113787      4.330327      6.417178
  Au      8.677000      5.924990     11.064622
  Au      7.640607      3.533564     10.261937
  Au      9.275886      3.311956      8.037735
  Au      9.167098      8.088930      9.704217
  Au      9.788178     10.547127      8.556901
  Au      5.903886      7.238136      8.221622
  Au      7.558148      9.251882      7.681121
  Cr      8.028382      5.655422      8.516715
13
Coordinates from ORCA-job pbe E -2674.147804053342
  Au      5.547107      4.638696      8.823854
  Au      7.969628      6.919541      6.135605
  Au     10.385132      5.642836      7.270845
  Au     10.243984      8.295770      7.090485
  Au      7.113663      4.329692      6.418069
  Au      8.676054      5.924689     11.065134
  Au      7.640195      3.533881     10.261093
  Au      9.276833      3.312701      8.038056
  Au      9.169333      8.088086      9.704845
  Au      9.788186     10.546244      8.557203
  Au      5.902945      7.237896      8.221466
  Au      7.558142      9.250966      7.681874
  Cr      8.028591      5.657555      8.515629
