11
E=  -1164.46820934;c=0;m=5
Au      9.900381101372909      8.491687999629679      9.524048100548550
Au      7.620254411155570      6.834127834953730      9.703536104080049
Au      8.059818322020600      8.783980946730710      7.401335757651590
Au     10.871845006888501      7.676275001916590      7.000163630138090
Au     10.432895032065259      5.725969472802600      9.303120561197829
Au      9.456749321663411      3.874875814369280      7.552258475651220
Au      9.896580014878610      5.825414273375820      5.250085782993940
Au      7.083904378434190      6.933285024683130      5.651021597647760
Au      6.644902596877020      4.982940350284240      7.953200078874940
Au      7.615774084899680      4.166881407499810      5.429380021101680
Fe      8.758521839744279      6.329854993754420      7.477260320114340
