17
E=  -1817.88493142;c=0;m=3
Au      8.081121405442239      6.579569487979080      9.418439337812170
Au      5.883144849564330      8.370149035444710      9.058263551720170
Au      9.555970214691120      7.526767939373660      7.154164749429530
Au      9.657363597992290     10.370263290515760      6.845772195938700
Au      8.489061651944690      9.387815332496650      9.148797343575160
Au      9.788030303720429      8.656487498996020      4.584426184330760
Au      8.149107682117130     11.007426602242980      4.587903378253470
Au      6.833327421025270     10.487233857700771      7.143168469266490
Au      8.519041344515880      4.892829075635490      7.181866115362340
Au      7.287207110019800      8.605146116395421      3.285163938247610
Au      8.129410077326520      6.394506515422010      4.810238191833850
Au      5.456898088324880     10.282806674559810      4.664782769146170
Au      5.355822769950980      7.439873708467230      4.972700525168510
Au      4.385892611878080      6.501536833164870      7.498952651128310
Au      4.278127605678290      9.299447877608969      6.962120882311650
Au      6.014031317021290      4.840132554000060      5.877952573582850
Fe      6.864614838786760      6.956609579996520      7.225648602892270
