11
Coordinates from ORCA-job pbe E -2509.015139091010
  Au      4.626741      6.486216      5.346891
  Au      8.296450      9.097224      6.566656
  Au      6.736615     11.237326      5.713926
  Au      5.535355      8.935789      5.038759
  Au      8.895168      6.536369      6.152710
  Au      6.889643      4.755238      6.320450
  Au      7.295255     10.879667      8.466955
  Au      5.240349      6.093427      8.449436
  Au      6.317590      8.436010      8.971426
  Au      4.246549      4.147425      6.762209
  Mn      6.506234      7.368952      6.723131
11
Coordinates from ORCA-job pbe E -2509.019472522235
  Au      4.579841      6.445667      5.337101
  Au      8.307766      9.132791      6.570134
  Au      6.783765     11.261304      5.744614
  Au      5.511909      8.972216      5.022519
  Au      8.902782      6.510937      6.147479
  Au      6.900208      4.757164      6.318609
  Au      7.329379     10.911518      8.426592
  Au      5.199038      6.049251      8.465876
  Au      6.302159      8.466313      9.003060
  Au      4.276394      4.099994      6.751096
  Mn      6.492709      7.366488      6.725471
11
Coordinates from ORCA-job pbe E -2509.021472895962
  Au      4.559125      6.455379      5.313489
  Au      8.346191      9.126833      6.563957
  Au      6.786295     11.245157      5.740891
  Au      5.478431      8.974056      5.007160
  Au      8.933973      6.532168      6.142541
  Au      6.895956      4.757485      6.319478
  Au      7.332952     10.894375      8.423583
  Au      5.189734      6.051300      8.497154
  Au      6.275542      8.462952      9.029896
  Au      4.290349      4.109711      6.750035
  Mn      6.497401      7.364227      6.724364
11
Coordinates from ORCA-job pbe E -2509.023333948689
  Au      4.528843      6.490270      5.287180
  Au      8.404695      9.125664      6.555720
  Au      6.773457     11.171159      5.747560
  Au      5.430944      8.965617      4.980969
  Au      8.963254      6.532054      6.133308
  Au      6.930358      4.802177      6.317765
  Au      7.312181     10.825160      8.403669
  Au      5.174739      6.076335      8.541249
  Au      6.238849      8.446276      9.069784
  Au      4.316749      4.172073      6.753344
  Mn      6.511881      7.366857      6.722000
11
Coordinates from ORCA-job pbe E -2509.023413443134
  Au      4.510681      6.489373      5.289535
  Au      8.440272      9.107474      6.548735
  Au      6.783804     11.164073      5.727690
  Au      5.394765      8.963849      4.972934
  Au      8.969162      6.535195      6.129972
  Au      6.935924      4.822631      6.318328
  Au      7.321457     10.817736      8.415171
  Au      5.159123      6.072643      8.547070
  Au      6.209007      8.440935      9.091926
  Au      4.352495      4.189153      6.747630
  Mn      6.509261      7.370581      6.723557
11
Coordinates from ORCA-job pbe E -2509.023728513169
  Au      4.505835      6.494624      5.292907
  Au      8.445984      9.110664      6.549222
  Au      6.792862     11.148411      5.733506
  Au      5.387473      8.972496      4.978729
  Au      8.980098      6.547166      6.128400
  Au      6.938654      4.821435      6.316974
  Au      7.322855     10.805531      8.402156
  Au      5.154817      6.077574      8.548024
  Au      6.201044      8.450034      9.092259
  Au      4.347426      4.167134      6.745453
  Mn      6.508904      7.378575      6.724918
11
Coordinates from ORCA-job pbe E -2509.023914940340
  Au      4.504759      6.496514      5.307282
  Au      8.454638      9.119985      6.550551
  Au      6.791163     11.143828      5.735659
  Au      5.383637      8.974865      4.981697
  Au      8.990588      6.533468      6.123792
  Au      6.939149      4.821794      6.315976
  Au      7.316959     10.800574      8.398377
  Au      5.149573      6.082690      8.536779
  Au      6.196493      8.452170      9.091661
  Au      4.346037      4.160360      6.745403
  Mn      6.512955      7.387394      6.725372
11
Coordinates from ORCA-job pbe E -2509.024302445357
  Au      4.495530      6.497810      5.342635
  Au      8.486522      9.121407      6.550064
  Au      6.806954     11.125460      5.729986
  Au      5.353712      8.982245      4.994128
  Au      9.005481      6.529222      6.117797
  Au      6.947655      4.837513      6.313277
  Au      7.321389     10.784827      8.388019
  Au      5.131331      6.088589      8.511262
  Au      6.165577      8.458475      9.096179
  Au      4.356032      4.135305      6.740067
  Mn      6.515765      7.412790      6.729134
11
Coordinates from ORCA-job pbe E -2509.024932962161
  Au      4.485813      6.500166      5.407487
  Au      8.543697      9.118550      6.545471
  Au      6.821286     11.094792      5.716787
  Au      5.309209      8.989130      5.012827
  Au      9.027106      6.523561      6.109613
  Au      6.950910      4.866012      6.312151
  Au      7.324602     10.753781      8.381226
  Au      5.102794      6.102121      8.461155
  Au      6.118221      8.466401      9.100238
  Au      4.375614      4.101501      6.731651
  Mn      6.526698      7.457629      6.733943
11
Coordinates from ORCA-job pbe E -2509.025415447480
  Au      4.476552      6.504555      5.466473
  Au      8.602223      9.116173      6.538476
  Au      6.837736     11.066943      5.702797
  Au      5.262388      8.988014      5.030014
  Au      9.041153      6.521932      6.104674
  Au      6.951976      4.900323      6.312214
  Au      7.333974     10.729547      8.375197
  Au      5.075379      6.116150      8.415820
  Au      6.068074      8.464235      9.106425
  Au      4.394294      4.063553      6.722394
  Mn      6.542201      7.502219      6.738064
11
Coordinates from ORCA-job pbe E -2509.025718913065
  Au      4.465516      6.504742      5.513704
  Au      8.657608      9.115613      6.529145
  Au      6.848446     11.023278      5.690774
  Au      5.220221      8.993376      5.042531
  Au      9.053503      6.529781      6.102196
  Au      6.940816      4.937396      6.316662
  Au      7.341607     10.683689      8.370464
  Au      5.048529      6.125401      8.378552
  Au      6.023938      8.471715      9.113344
  Au      4.424689      4.041364      6.714768
  Mn      6.561078      7.547288      6.740408
11
Coordinates from ORCA-job pbe E -2509.026003731259
  Au      4.459017      6.503741      5.515058
  Au      8.692096      9.120896      6.519414
  Au      6.848239     11.009790      5.682452
  Au      5.198928      8.991416      5.038709
  Au      9.053222      6.530042      6.103560
  Au      6.938034      4.961511      6.320420
  Au      7.346594     10.664070      8.378053
  Au      5.040350      6.127797      8.378684
  Au      6.004373      8.469190      9.123223
  Au      4.426031      4.023941      6.713858
  Mn      6.579066      7.571251      6.739118
11
Coordinates from ORCA-job pbe E -2509.026262304640
  Au      4.462500      6.494698      5.507482
  Au      8.719527      9.137342      6.510652
  Au      6.853900     10.993473      5.686892
  Au      5.178879      8.983664      5.041439
  Au      9.048729      6.536144      6.109236
  Au      6.915521      4.980523      6.327265
  Au      7.354313     10.653902      8.366910
  Au      5.042429      6.119776      8.380441
  Au      5.984892      8.456970      9.131395
  Au      4.424363      4.019853      6.711891
  Mn      6.600895      7.597298      6.738945
11
Coordinates from ORCA-job pbe E -2509.026431296435
  Au      4.473141      6.485410      5.510773
  Au      8.741746      9.156244      6.502913
  Au      6.843148     10.986276      5.690123
  Au      5.174944      8.979037      5.039187
  Au      9.042397      6.531389      6.114113
  Au      6.901749      4.990621      6.333304
  Au      7.350594     10.639067      8.368296
  Au      5.046248      6.113898      8.367873
  Au      5.983828      8.456135      9.133452
  Au      4.404962      4.010640      6.714704
  Mn      6.623194      7.624925      6.737811
11
Coordinates from ORCA-job pbe E -2509.026476126005
  Au      4.476772      6.482773      5.506988
  Au      8.745984      9.161599      6.498537
  Au      6.838240     10.983521      5.693821
  Au      5.176581      8.981066      5.035413
  Au      9.036358      6.530868      6.118008
  Au      6.899677      4.987044      6.335042
  Au      7.348099     10.632396      8.366755
  Au      5.049378      6.115692      8.369198
  Au      5.986329      8.453144      9.135505
  Au      4.401211      4.011509      6.715562
  Mn      6.627322      7.634031      6.737720
11
Coordinates from ORCA-job pbe E -2509.026524096679
  Au      4.482575      6.484094      5.507144
  Au      8.757673      9.169059      6.492540
  Au      6.833954     10.977962      5.696461
  Au      5.170216      8.976736      5.031663
  Au      9.030321      6.533153      6.123410
  Au      6.898064      4.983018      6.338366
  Au      7.348702     10.620457      8.363606
  Au      5.051297      6.114742      8.363195
  Au      5.984803      8.450766      9.140865
  Au      4.395656      4.011490      6.715698
  Mn      6.632689      7.652166      6.739600
11
Coordinates from ORCA-job pbe E -2509.026576989250
  Au      4.488074      6.482443      5.509121
  Au      8.768437      9.174623      6.484992
  Au      6.833027     10.970455      5.691472
  Au      5.164445      8.978886      5.027471
  Au      9.022937      6.535403      6.129897
  Au      6.897296      4.980230      6.340969
  Au      7.348916     10.613174      8.361595
  Au      5.053436      6.113935      8.358386
  Au      5.983222      8.442266      9.152280
  Au      4.392568      4.011547      6.712795
  Mn      6.633592      7.670680      6.743569
11
Coordinates from ORCA-job pbe E -2509.026659770810
  Au      4.495576      6.480048      5.504894
  Au      8.784443      9.180060      6.468626
  Au      6.832396     10.966020      5.691110
  Au      5.153313      8.978940      5.009854
  Au      9.011009      6.538571      6.140707
  Au      6.895655      4.980099      6.348932
  Au      7.350737     10.591226      8.360133
  Au      5.056942      6.113400      8.356440
  Au      5.982717      8.432811      9.172583
  Au      4.394289      4.013745      6.710566
  Mn      6.628873      7.698724      6.748702
11
Coordinates from ORCA-job pbe E -2509.026808358735
  Au      4.508413      6.482487      5.507824
  Au      8.825452      9.190745      6.443377
  Au      6.829945     10.939066      5.681256
  Au      5.129251      8.978549      4.987919
  Au      9.003926      6.544820      6.156085
  Au      6.888422      4.997276      6.361350
  Au      7.345083     10.551110      8.348645
  Au      5.060730      6.110482      8.347322
  Au      5.976431      8.410238      9.214750
  Au      4.391001      4.015216      6.702681
  Mn      6.627297      7.753654      6.761338
11
Coordinates from ORCA-job pbe E -2509.027008117180
  Au      4.519494      6.484115      5.507277
  Au      8.862106      9.201771      6.417784
  Au      6.830886     10.913016      5.671285
  Au      5.108052      8.978089      4.959783
  Au      9.000988      6.554204      6.171887
  Au      6.881119      5.026186      6.373864
  Au      7.338657     10.500816      8.333991
  Au      5.064097      6.105410      8.343493
  Au      5.972972      8.385983      9.260908
  Au      4.386541      4.016776      6.697602
  Mn      6.621038      7.807277      6.774674
11
Coordinates from ORCA-job pbe E -2509.027259994222
  Au      4.521185      6.493046      5.511259
  Au      8.899234      9.212786      6.393289
  Au      6.834191     10.883228      5.656997
  Au      5.091070      8.975728      4.928091
  Au      9.012093      6.564843      6.185968
  Au      6.873769      5.069878      6.382480
  Au      7.323740     10.437919      8.311893
  Au      5.060316      6.102312      8.345618
  Au      5.971432      8.357617      9.314193
  Au      4.385943      4.018525      6.692538
  Mn      6.612976      7.857761      6.790222
11
Coordinates from ORCA-job pbe E -2509.027481625883
  Au      4.516609      6.502049      5.521593
  Au      8.933544      9.227262      6.367650
  Au      6.842190     10.858125      5.638497
  Au      5.081117      8.973008      4.896115
  Au      9.024552      6.575464      6.201504
  Au      6.868126      5.118102      6.387500
  Au      7.302303     10.368073      8.286248
  Au      5.050705      6.099721      8.348137
  Au      5.972490      8.322994      9.369031
  Au      4.387786      4.021693      6.689936
  Mn      6.606528      7.907151      6.806339
11
Coordinates from ORCA-job pbe E -2509.027498765838
  Au      4.473970      6.530777      5.530843
  Au      8.935867      9.234876      6.356755
  Au      6.862357     10.854427      5.600095
  Au      5.107248      8.963279      4.864283
  Au      9.073399      6.594201      6.208444
  Au      6.875264      5.175590      6.372214
  Au      7.256425     10.305832      8.250727
  Au      5.022356      6.089153      8.380138
  Au      5.993876      8.284642      9.434526
  Au      4.393226      4.038808      6.690497
  Mn      6.591964      7.902058      6.824027
11
Coordinates from ORCA-job pbe E -2509.027654614874
  Au      4.481937      6.527112      5.552703
  Au      8.969282      9.255152      6.329673
  Au      6.870941     10.851141      5.587600
  Au      5.102765      8.964227      4.852115
  Au      9.054552      6.592407      6.226246
  Au      6.860840      5.192804      6.382894
  Au      7.233819     10.259225      8.233608
  Au      5.021459      6.091894      8.362633
  Au      5.994131      8.251991      9.463477
  Au      4.395121      4.029456      6.687610
  Mn      6.601101      7.958235      6.833990
11
Coordinates from ORCA-job pbe E -2509.027972252684
  Au      4.488607      6.513067      5.559695
  Au      8.939463      9.249288      6.340968
  Au      6.876703     10.902468      5.593791
  Au      5.130798      8.967514      4.888623
  Au      9.020751      6.577928      6.219000
  Au      6.856980      5.137726      6.380191
  Au      7.230828     10.330287      8.252887
  Au      5.033930      6.093419      8.347317
  Au      5.999390      8.264795      9.419138
  Au      4.391952      4.016956      6.691471
  Mn      6.616549      7.920194      6.819467
11
Coordinates from ORCA-job pbe E -2509.028610210369
  Au      4.469274      6.533915      5.560986
  Au      8.914152      9.244662      6.342853
  Au      6.900907     10.938152      5.554634
  Au      5.180570      8.965571      4.897731
  Au      9.017799      6.588747      6.227039
  Au      6.861649      5.131603      6.369055
  Au      7.167140     10.330525      8.217755
  Au      5.037609      6.072184      8.370068
  Au      6.041355      8.241285      9.456391
  Au      4.384358      4.033646      6.682109
  Mn      6.611135      7.893353      6.833927
11
Coordinates from ORCA-job pbe E -2509.029457579359
  Au      4.451270      6.558735      5.571927
  Au      8.891411      9.242912      6.328599
  Au      6.929661     10.988390      5.510942
  Au      5.236134      8.964642      4.918165
  Au      9.027517      6.615102      6.242682
  Au      6.863340      5.126964      6.360932
  Au      7.093298     10.289560      8.165383
  Au      5.041809      6.055386      8.391814
  Au      6.069682      8.209262      9.495370
  Au      4.369187      4.050954      6.676727
  Mn      6.612641      7.871736      6.850009
11
Coordinates from ORCA-job pbe E -2509.030293881848
  Au      4.443639      6.589282      5.580770
  Au      8.865794      9.247056      6.304641
  Au      6.951396     11.043616      5.475011
  Au      5.294119      8.971020      4.947507
  Au      9.021656      6.621698      6.264907
  Au      6.865521      5.111439      6.356809
  Au      7.018821     10.246291      8.108083
  Au      5.051083      6.041432      8.409448
  Au      6.095128      8.183696      9.529761
  Au      4.361245      4.064229      6.669476
  Mn      6.617548      7.853882      6.866135
11
Coordinates from ORCA-job pbe E -2509.031319365588
  Au      4.456498      6.614726      5.587774
  Au      8.832076      9.248570      6.262891
  Au      6.966951     11.110224      5.459823
  Au      5.341961      8.994914      4.999125
  Au      9.019458      6.611336      6.287803
  Au      6.870658      5.076627      6.358779
  Au      6.955518     10.209371      8.054068
  Au      5.072542      6.032704      8.420982
  Au      6.090976      8.175834      9.538592
  Au      4.349368      4.075921      6.667371
  Mn      6.629942      7.823416      6.875342
11
Coordinates from ORCA-job pbe E -2509.032670160978
  Au      4.483703      6.634729      5.595575
  Au      8.796101      9.242777      6.214871
  Au      6.982513     11.172096      5.454927
  Au      5.369360      9.033969      5.056039
  Au      9.022900      6.581356      6.305251
  Au      6.877847      5.044188      6.365519
  Au      6.902452     10.190762      8.007342
  Au      5.098299      6.021450      8.427481
  Au      6.071423      8.185169      9.540105
  Au      4.342672      4.084983      6.660835
  Mn      6.638679      7.782164      6.884605
11
Coordinates from ORCA-job pbe E -2509.034082087726
  Au      4.519609      6.647530      5.601202
  Au      8.762181      9.227080      6.163169
  Au      7.003527     11.226127      5.453664
  Au      5.379075      9.080867      5.102181
  Au      9.031190      6.550075      6.314047
  Au      6.885502      5.025557      6.379265
  Au      6.854916     10.178034      7.968356
  Au      5.123913      6.004298      8.434761
  Au      6.045988      8.200735      9.547124
  Au      4.339012      4.096903      6.650747
  Mn      6.641038      7.736437      6.898033
11
Coordinates from ORCA-job pbe E -2509.035156067940
  Au      4.545891      6.668558      5.603044
  Au      8.723829      9.207443      6.117656
  Au      7.026559     11.273413      5.448453
  Au      5.403150      9.109142      5.142613
  Au      9.037178      6.541571      6.318946
  Au      6.893207      5.008789      6.391395
  Au      6.800606     10.159349      7.927501
  Au      5.145616      5.986967      8.449987
  Au      6.032883      8.210305      9.560359
  Au      4.333933      4.116974      6.637598
  Mn      6.643100      7.691130      6.914998
11
Coordinates from ORCA-job pbe E -2509.036059870349
  Au      4.576525      6.683665      5.594154
  Au      8.683574      9.177958      6.060053
  Au      7.054863     11.312966      5.456326
  Au      5.413578      9.144525      5.171263
  Au      9.043137      6.542062      6.309513
  Au      6.905394      4.990982      6.416714
  Au      6.762205     10.147042      7.903429
  Au      5.164293      5.972198      8.472067
  Au      6.003618      8.220830      9.567133
  Au      4.333278      4.135996      6.626559
  Mn      6.645486      7.645420      6.935338
11
Coordinates from ORCA-job pbe E -2509.036600141209
  Au      4.580815      6.717212      5.592615
  Au      8.642088      9.165842      6.019290
  Au      7.069936     11.347974      5.449181
  Au      5.460116      9.146773      5.200306
  Au      9.049604      6.552199      6.314961
  Au      6.918502      4.976040      6.425575
  Au      6.707756     10.117938      7.861619
  Au      5.171238      5.954186      8.492311
  Au      6.006555      8.222853      9.587324
  Au      4.326672      4.165152      6.611804
  Mn      6.652668      7.607473      6.957562
11
Coordinates from ORCA-job pbe E -2509.037075741371
  Au      4.595289      6.727183      5.571501
  Au      8.590294      9.145452      5.956076
  Au      7.089374     11.376829      5.468699
  Au      5.477100      9.162201      5.204002
  Au      9.051482      6.563147      6.302636
  Au      6.936757      4.947529      6.461894
  Au      6.701249     10.117316      7.866302
  Au      5.172065      5.944410      8.515995
  Au      5.986336      8.228766      9.586229
  Au      4.327714      4.182440      6.597662
  Mn      6.658290      7.578370      6.981554
11
Coordinates from ORCA-job pbe E -2509.037279646953
  Au      4.590109      6.740201      5.569708
  Au      8.550645      9.132782      5.913840
  Au      7.093536     11.403060      5.484031
  Au      5.509056      9.166315      5.206108
  Au      9.060720      6.560724      6.299921
  Au      6.950707      4.942731      6.480908
  Au      6.694947     10.114480      7.859828
  Au      5.160024      5.936558      8.524817
  Au      5.980498      8.232016      9.584960
  Au      4.334677      4.190371      6.590398
  Mn      6.661031      7.554405      6.998030
11
Coordinates from ORCA-job pbe E -2509.037375835797
  Au      4.593427      6.742878      5.563087
  Au      8.529540      9.131046      5.876560
  Au      7.089381     11.411785      5.499044
  Au      5.517602      9.165982      5.198419
  Au      9.066147      6.555920      6.295359
  Au      6.965013      4.930008      6.506655
  Au      6.700398     10.111608      7.868043
  Au      5.144135      5.943704      8.527032
  Au      5.978909      8.223178      9.584419
  Au      4.337162      4.201580      6.581457
  Mn      6.664236      7.555954      7.012473
11
Coordinates from ORCA-job pbe E -2509.037455031226
  Au      4.581971      6.738211      5.572630
  Au      8.530646      9.129699      5.884393
  Au      7.085853     11.413217      5.499399
  Au      5.528833      9.159569      5.201887
  Au      9.059635      6.555035      6.282208
  Au      6.965974      4.935577      6.514704
  Au      6.708349     10.127033      7.873578
  Au      5.126673      5.946381      8.515788
  Au      5.983706      8.223076      9.573453
  Au      4.346045      4.188611      6.578580
  Mn      6.668265      7.557234      7.015929
11
Coordinates from ORCA-job pbe E -2509.037523678799
  Au      4.582932      6.739059      5.582894
  Au      8.537091      9.132609      5.888614
  Au      7.088174     11.409429      5.492788
  Au      5.526633      9.158281      5.214192
  Au      9.060265      6.553613      6.269327
  Au      6.964624      4.941522      6.522484
  Au      6.707337     10.127114      7.871895
  Au      5.114604      5.950758      8.505059
  Au      5.982531      8.220850      9.569633
  Au      4.350235      4.178732      6.575163
  Mn      6.671526      7.561675      7.020500
11
Coordinates from ORCA-job pbe E -2509.037568120797
  Au      4.595095      6.731891      5.584775
  Au      8.544941      9.139166      5.890414
  Au      7.083740     11.409231      5.490280
  Au      5.525381      9.153379      5.219917
  Au      9.058066      6.554400      6.254295
  Au      6.960593      4.942548      6.537918
  Au      6.707834     10.130591      7.873418
  Au      5.101986      5.954060      8.494700
  Au      5.988017      8.214718      9.567708
  Au      4.342606      4.173155      6.571958
  Mn      6.677691      7.570504      7.027167
11
Coordinates from ORCA-job pbe E -2509.037580857088
  Au      4.603082      6.729889      5.581134
  Au      8.541592      9.139280      5.884851
  Au      7.083871     11.411538      5.493134
  Au      5.527970      9.153213      5.217928
  Au      9.055615      6.555114      6.249700
  Au      6.958599      4.943418      6.542742
  Au      6.708415     10.129760      7.875078
  Au      5.098025      5.954500      8.496014
  Au      5.989172      8.213989      9.569170
  Au      4.341922      4.171400      6.571890
  Mn      6.677687      7.571542      7.030906
11
Coordinates from ORCA-job pbe E -2509.037594056424
  Au      4.617952      6.724246      5.573099
  Au      8.537662      9.139419      5.879181
  Au      7.081662     11.415500      5.499123
  Au      5.533955      9.151782      5.212428
  Au      9.049820      6.556364      6.245088
  Au      6.954893      4.944281      6.544191
  Au      6.708402     10.130093      7.877159
  Au      5.095908      5.953752      8.499781
  Au      5.991600      8.213124      9.571678
  Au      4.337112      4.171820      6.576000
  Mn      6.676984      7.573263      7.034823
11
Coordinates from ORCA-job pbe E -2509.037598520944
  Au      4.621181      6.721524      5.571099
  Au      8.538105      9.139767      5.879991
  Au      7.080812     11.415217      5.500310
  Au      5.536635      9.149922      5.208515
  Au      9.048526      6.556586      6.243572
  Au      6.952748      4.947200      6.539930
  Au      6.708488     10.130399      7.878763
  Au      5.095756      5.953375      8.502406
  Au      5.991899      8.213428      9.573525
  Au      4.336009      4.171699      6.578587
  Mn      6.675792      7.574527      7.035850
11
Coordinates from ORCA-job pbe E -2509.037603312056
  Au      4.625946      6.719161      5.568898
  Au      8.536896      9.139753      5.881621
  Au      7.079384     11.416567      5.501376
  Au      5.542752      9.147555      5.206929
  Au      9.045637      6.555906      6.242219
  Au      6.949739      4.947028      6.532239
  Au      6.707135     10.132518      7.879577
  Au      5.099685      5.952001      8.505685
  Au      5.989753      8.215227      9.573716
  Au      4.333870      4.172683      6.582775
  Mn      6.675153      7.575244      7.037514
11
Coordinates from ORCA-job pbe E -2509.037607400532
  Au      4.623979      6.718299      5.570121
  Au      8.540594      9.140608      5.886363
  Au      7.079881     11.413869      5.500167
  Au      5.543650      9.145108      5.205479
  Au      9.047146      6.555400      6.239770
  Au      6.948058      4.950439      6.524628
  Au      6.705692     10.133391      7.879919
  Au      5.102372      5.950800      8.507334
  Au      5.985940      8.216592      9.574397
  Au      4.333182      4.172787      6.585895
  Mn      6.675455      7.576348      7.038475
11
Coordinates from ORCA-job pbe E -2509.037610960311
  Au      4.621850      6.718765      5.572793
  Au      8.542299      9.140959      5.889793
  Au      7.081179     11.413136      5.498296
  Au      5.544454      9.143960      5.207430
  Au      9.048052      6.554241      6.237158
  Au      6.947150      4.950525      6.519904
  Au      6.703865     10.134425      7.879060
  Au      5.106670      5.949426      8.507901
  Au      5.980692      8.219308      9.573534
  Au      4.332679      4.172532      6.586328
  Mn      6.677061      7.576367      7.040352
11
Coordinates from ORCA-job pbe E -2509.037612969971
  Au      4.621453      6.719587      5.574398
  Au      8.543130      9.141162      5.891310
  Au      7.082541     11.413190      5.497660
  Au      5.544533      9.143803      5.208974
  Au      9.047897      6.553327      6.234184
  Au      6.946769      4.949683      6.518363
  Au      6.702381     10.135129      7.878059
  Au      5.109865      5.948134      8.507540
  Au      5.976204      8.221339      9.572752
  Au      4.332156      4.172138      6.586809
  Mn      6.679021      7.576151      7.042499
11
Coordinates from ORCA-job pbe E -2509.037613595115
  Au      4.622035      6.719722      5.574994
  Au      8.542776      9.141094      5.891053
  Au      7.082831     11.413768      5.497732
  Au      5.544817      9.143960      5.208950
  Au      9.047167      6.553095      6.233061
  Au      6.946730      4.949064      6.518763
  Au      6.702239     10.134969      7.877777
  Au      5.110743      5.947812      8.507306
  Au      5.974947      8.222236      9.572929
  Au      4.331932      4.171839      6.586275
  Mn      6.679732      7.576085      7.043710
