11
E=  -1135.58370763;c=0;m=5
Au      6.191752186821900      8.548963023772950      9.849472415673640
Au      8.350210510172859      7.945319875145840     11.650559713963951
Au      7.379673096268540      6.043677785687230     13.203358286871460
Au     10.195351757240781      6.566355628689890      9.929056425820241
Au      9.126732717422151      9.427712798808590      9.511499971635420
Au      8.854123356209000      8.768754368051470      6.813437569563140
Au      9.740586863154631      6.000517187662000      7.267804723864650
Au      6.101740045570820      7.801598661254010      7.195464588980020
Au      7.003752634130820      5.075322740830130      7.911284153313750
Au      7.173301482141600      5.521474764148920     10.558038754265050
Cr      8.059229010867631      7.239764525947280      8.720765966048161
