15
E=  -1570.53164506;c=0;m=5
Au      7.608280650623730     10.461445764920519      6.232895748047660
Au      5.482708315233840     10.753471168942180      8.111311063771661
Au      7.797734541910550     10.112569131187991     10.027564493724020
Au      8.182213951269651      6.278864301108820      8.124935999270830
Au      6.674839135357090      7.577911831847910     10.249131135317491
Au      5.515373993514140      5.468954480453380      8.891482378371080
Au      4.474185318705440      8.123470343687050      8.320696060193860
Au      9.502131473091501      8.925436820002380      8.044049551182891
Au      8.969071813605620      5.134984786740100      5.620162651782860
Au      8.446438490997330      7.862901062854620      5.652258304806780
Au      6.553276800564670      6.111569329677640      4.459891335937190
Au      5.602185984550190      8.503489562188420      5.691449132017150
Au      4.405720031286390      6.023621660881440      6.307268522661560
Au      6.554782934074640      4.216185557968320      6.680106678341510
Cr      6.989960165215170      8.723222397539290      8.003487574573480
