17
E=  -1798.95118930;c=0;m=4
Au      4.397595325741640      6.506806813972540      6.874331199706180
Au      6.150258435934910      6.464389516935720      4.704579550056540
Au      6.831038013608570      5.054925250163330      7.031483314021580
Au      7.367122527197800      9.001650859017840      4.566885209637220
Au      4.548091453341730      8.804114946316449      5.291752860931910
Au      8.735593599752621      6.900327007059590      5.740261973564860
Au      8.865669716826570      9.659665393284760      6.850474223252000
Au      6.243356834647910     10.674923138176760      6.533802201965660
Au      5.931344177841930      8.053911164797910     10.220978959140689
Au      8.396645952233300      9.137020362159699      9.570245335859379
Au      7.987711849473110      6.262034812815680      9.469413924036679
Au      3.370502645263280      7.652879270488180      9.184034995748460
Au      6.007664895033270     10.666554313562029      9.258690393554550
Au      5.304544289783340      5.443915550795380      9.341688130998730
Au      9.568089056994181      4.915543769725620      7.520456126655020
Au     10.161697791727599      7.568854049720560      8.136981229026540
Mn      4.919771484599580      8.965190011007859      7.790218591842960
