17
Coordinates from ORCA-job pbe E -3436.721740620817
  Au      9.235117      6.882684      9.400995
  Au      7.725985      5.716109      7.265990
  Au      6.516753      7.657487      9.137663
  Au     10.395246      6.591341      6.834352
  Au      9.325700     10.693477      7.046170
  Au      8.518256      9.630181      9.542937
  Au      9.703297      8.699713      5.035761
  Au      5.974936      6.167252      4.962561
  Au      5.212973      9.089400      5.112972
  Au      3.412234      7.033011      5.551357
  Au      4.982439      5.840383      7.607766
  Au      4.253105      8.635449      7.751763
  Au      7.286645      8.151779      3.438829
  Au      8.716590      6.050080      4.604635
  Au      7.540822     10.561026      4.836978
  Au      6.579592     10.112921      7.492427
  Fe      8.576160      8.290217      7.281820
17
Coordinates from ORCA-job pbe E -3436.724839407460
  Au      9.208177      6.873829      9.391717
  Au      7.714033      5.725355      7.263054
  Au      6.528284      7.662196      9.107440
  Au     10.386035      6.573065      6.826093
  Au      9.308539     10.705733      7.039361
  Au      8.489920      9.625425      9.533859
  Au      9.688671      8.696008      5.030818
  Au      5.989597      6.183002      4.979454
  Au      5.233896      9.081327      5.128603
  Au      3.447919      7.041369      5.567845
  Au      5.014097      5.862498      7.601067
  Au      4.291807      8.632340      7.743704
  Au      7.285613      8.150393      3.463550
  Au      8.704372      6.060113      4.616183
  Au      7.535092     10.545255      4.847288
  Au      6.573803     10.099319      7.488167
  Fe      8.555993      8.285284      7.276771
17
Coordinates from ORCA-job pbe E -3436.726074847211
  Au      9.201183      6.860926      9.384871
  Au      7.710188      5.718279      7.258476
  Au      6.525958      7.662668      9.089651
  Au     10.389338      6.545658      6.812783
  Au      9.297659     10.732634      7.028470
  Au      8.476595      9.633459      9.528234
  Au      9.683899      8.694918      5.019225
  Au      6.004115      6.192572      4.991446
  Au      5.251413      9.078968      5.139829
  Au      3.439225      7.038704      5.574630
  Au      5.020337      5.871068      7.602296
  Au      4.302543      8.627952      7.744089
  Au      7.294340      8.152007      3.484775
  Au      8.707021      6.072893      4.630687
  Au      7.543495     10.534089      4.860851
  Au      6.567306     10.103891      7.483742
  Fe      8.541232      8.281824      7.270919
17
Coordinates from ORCA-job pbe E -3436.726686238713
  Au      9.199654      6.854206      9.374853
  Au      7.706668      5.702225      7.256029
  Au      6.535368      7.665535      9.079605
  Au     10.399327      6.523138      6.809887
  Au      9.295540     10.757696      7.027734
  Au      8.471426      9.639174      9.519207
  Au      9.694156      8.697529      5.012024
  Au      5.997037      6.202227      5.005718
  Au      5.249803      9.065669      5.152509
  Au      3.437248      7.037772      5.578532
  Au      5.014559      5.878711      7.595826
  Au      4.301804      8.618956      7.736333
  Au      7.293096      8.151675      3.490774
  Au      8.716795      6.078112      4.643145
  Au      7.554920     10.533512      4.873271
  Au      6.556798     10.116701      7.482342
  Fe      8.531646      8.279673      7.267184
17
Coordinates from ORCA-job pbe E -3436.727124503454
  Au      9.206193      6.853377      9.361599
  Au      7.706233      5.685283      7.255364
  Au      6.540546      7.666663      9.077870
  Au     10.401034      6.510144      6.810459
  Au      9.290696     10.770061      7.029488
  Au      8.476101      9.644103      9.506380
  Au      9.703821      8.699875      5.010779
  Au      6.000479      6.209968      5.009163
  Au      5.256423      9.060401      5.154832
  Au      3.418791      7.033439      5.568595
  Au      5.009189      5.875833      7.600651
  Au      4.296531      8.618362      7.740773
  Au      7.295096      8.152228      3.495860
  Au      8.720386      6.086940      4.654250
  Au      7.562724     10.526626      4.883718
  Au      6.548291     10.131356      7.482863
  Fe      8.523315      8.277849      7.262331
17
Coordinates from ORCA-job pbe E -3436.727470697776
  Au      9.218422      6.856156      9.350712
  Au      7.702850      5.669270      7.255791
  Au      6.536395      7.665466      9.072642
  Au     10.400407      6.506435      6.816096
  Au      9.288377     10.772702      7.035683
  Au      8.487472      9.648537      9.495364
  Au      9.719866      8.703796      5.015290
  Au      5.997691      6.217535      5.013751
  Au      5.257677      9.052289      5.158180
  Au      3.411278      7.031829      5.563913
  Au      5.004159      5.877959      7.603433
  Au      4.293872      8.613808      7.742806
  Au      7.295469      8.152707      3.490380
  Au      8.721085      6.093677      4.660852
  Au      7.567023     10.520398      4.889615
  Au      6.537519     10.143527      7.484491
  Fe      8.516286      8.276420      7.255976
17
Coordinates from ORCA-job pbe E -3436.727786673886
  Au      9.225510      6.861411      9.341097
  Au      7.696650      5.655590      7.258107
  Au      6.549197      7.668551      9.070252
  Au     10.394732      6.506761      6.821747
  Au      9.283602     10.769381      7.041658
  Au      8.495673      9.648182      9.485149
  Au      9.736491      8.707768      5.023840
  Au      5.996026      6.224305      5.017248
  Au      5.259523      9.045621      5.160538
  Au      3.405932      7.030741      5.561013
  Au      5.001432      5.875934      7.604846
  Au      4.290966      8.613982      7.743970
  Au      7.298802      8.153930      3.480759
  Au      8.718641      6.103297      4.665775
  Au      7.570100     10.510298      4.893338
  Au      6.525403     10.152216      7.487800
  Fe      8.507167      8.274541      7.247837
17
Coordinates from ORCA-job pbe E -3436.728065368872
  Au      9.232681      6.867218      9.338579
  Au      7.691787      5.648375      7.262006
  Au      6.551714      7.669172      9.065230
  Au     10.386282      6.508842      6.821808
  Au      9.277040     10.763674      7.041722
  Au      8.504372      9.646779      9.482153
  Au      9.754155      8.711958      5.033527
  Au      5.995837      6.232372      5.020332
  Au      5.263410      9.038692      5.162541
  Au      3.405352      7.030705      5.563478
  Au      4.997049      5.877772      7.607567
  Au      4.288367      8.609666      7.746243
  Au      7.302872      8.155350      3.468753
  Au      8.715467      6.115943      4.667769
  Au      7.573972     10.497461      4.893820
  Au      6.517662     10.155817      7.492091
  Fe      8.497827      8.272715      7.237357
17
Coordinates from ORCA-job pbe E -3436.728303011843
  Au      9.234582      6.872234      9.341056
  Au      7.686230      5.646338      7.266648
  Au      6.556089      7.670421      9.059955
  Au     10.380212      6.507851      6.821691
  Au      9.270891     10.761741      7.041675
  Au      8.507955      9.642923      9.484368
  Au      9.774162      8.716832      5.041358
  Au      5.996951      6.238643      5.022817
  Au      5.267682      9.034093      5.164336
  Au      3.402596      7.030024      5.570479
  Au      4.995980      5.877701      7.610553
  Au      4.287884      8.608642      7.749136
  Au      7.304860      8.156489      3.451826
  Au      8.712535      6.128753      4.665917
  Au      7.577807     10.484853      4.890412
  Au      6.511850     10.154319      7.496566
  Fe      8.487581      8.270653      7.226181
17
Coordinates from ORCA-job pbe E -3436.728479622568
  Au      9.237473      6.877523      9.342748
  Au      7.684643      5.648623      7.269462
  Au      6.555224      7.670145      9.060449
  Au     10.375370      6.503369      6.820212
  Au      9.264401     10.763533      7.040580
  Au      8.512764      9.639451      9.486018
  Au      9.790067      8.720784      5.045871
  Au      5.998870      6.246017      5.026093
  Au      5.273032      9.028618      5.166827
  Au      3.402027      7.029757      5.576565
  Au      4.991464      5.875999      7.609994
  Au      4.283233      8.607446      7.748727
  Au      7.302734      8.156214      3.441207
  Au      8.710493      6.143244      4.666471
  Au      7.583307     10.471264      4.889112
  Au      6.511866     10.151517      7.499092
  Fe      8.478879      8.269006      7.215546
17
Coordinates from ORCA-job pbe E -3436.728615457366
  Au      9.236605      6.881834      9.343304
  Au      7.683459      5.653073      7.270918
  Au      6.552052      7.669250      9.060626
  Au     10.374499      6.496437      6.822034
  Au      9.260002     10.768946      7.042921
  Au      8.513669      9.635143      9.486445
  Au      9.805476      8.724698      5.048706
  Au      5.999444      6.248602      5.028697
  Au      5.274975      9.026668      5.169270
  Au      3.396682      7.028368      5.583233
  Au      4.991687      5.873158      7.611189
  Au      4.282479      8.609747      7.750349
  Au      7.297347      8.155369      3.427673
  Au      8.712328      6.154803      4.665707
  Au      7.590405     10.462057      4.886845
  Au      6.513165     10.146791      7.500065
  Fe      8.471574      8.267566      7.206992
17
Coordinates from ORCA-job pbe E -3436.728717612165
  Au      9.236965      6.885813      9.342725
  Au      7.683904      5.657039      7.269956
  Au      6.548589      7.667955      9.066163
  Au     10.375894      6.491822      6.824497
  Au      9.258931     10.773343      7.045749
  Au      8.515839      9.631989      9.485670
  Au      9.814236      8.726932      5.051303
  Au      5.999418      6.250833      5.030121
  Au      5.276068      9.024621      5.170567
  Au      3.395161      7.028009      5.585590
  Au      4.990656      5.870089      7.609807
  Au      4.280200      8.611888      7.749497
  Au      7.287291      8.152952      3.421105
  Au      8.713354      6.166289      4.666079
  Au      7.596833     10.452598      4.885661
  Au      6.515679     10.143704      7.498894
  Fe      8.466828      8.266634      7.201590
17
Coordinates from ORCA-job pbe E -3436.728812913546
  Au      9.234315      6.887228      9.340912
  Au      7.685862      5.659619      7.267372
  Au      6.545095      7.666638      9.070662
  Au     10.378963      6.490428      6.826836
  Au      9.260929     10.775697      7.048062
  Au      8.514163      9.629790      9.483610
  Au      9.818906      8.728076      5.054528
  Au      5.998700      6.248911      5.030731
  Au      5.274535      9.025805      5.171539
  Au      3.393842      7.027708      5.586766
  Au      4.992032      5.868884      7.609753
  Au      4.280905      8.613655      7.749926
  Au      7.276108      8.150238      3.416175
  Au      8.716101      6.174932      4.667002
  Au      7.603285     10.446413      4.885462
  Au      6.518739     10.142650      7.496300
  Fe      8.463371      8.265837      7.199338
17
Coordinates from ORCA-job pbe E -3436.728923029064
  Au      9.230932      6.886274      9.338915
  Au      7.688503      5.659041      7.263958
  Au      6.543149      7.665655      9.075153
  Au     10.383746      6.493853      6.829306
  Au      9.266830     10.774640      7.049957
  Au      8.510683      9.629315      9.481366
  Au      9.819264      8.728078      5.058128
  Au      5.997699      6.244669      5.029975
  Au      5.271623      9.028912      5.171452
  Au      3.395062      7.028160      5.585336
  Au      4.994699      5.869320      7.609805
  Au      4.283479      8.614827      7.750310
  Au      7.264072      8.147237      3.414356
  Au      8.717655      6.180915      4.667971
  Au      7.607291     10.441967      4.885695
  Au      6.520730     10.144679      7.493151
  Fe      8.460431      8.264967      7.200140
17
Coordinates from ORCA-job pbe E -3436.729056340304
  Au      9.226673      6.882439      9.336244
  Au      7.692216      5.654568      7.260479
  Au      6.542765      7.665123      9.078354
  Au     10.388956      6.503401      6.830927
  Au      9.276287     10.768546      7.050355
  Au      8.505105      9.630963      9.478495
  Au      9.815656      8.727038      5.062276
  Au      5.996615      6.237429      5.028157
  Au      5.267124      9.034528      5.170618
  Au      3.398888      7.029260      5.581567
  Au      4.998876      5.871854      7.610286
  Au      4.288198      8.614967      7.750955
  Au      7.253067      8.144423      3.415356
  Au      8.718166      6.183696      4.669722
  Au      7.608826     10.439838      4.887170
  Au      6.521741     10.150725      7.490315
  Fe      8.456690      8.263711      7.203700
17
Coordinates from ORCA-job pbe E -3436.729198470171
  Au      9.223373      6.877414      9.334778
  Au      7.695915      5.647093      7.258251
  Au      6.543795      7.665066      9.080107
  Au     10.393196      6.516888      6.831236
  Au      9.286723     10.758743      7.048993
  Au      8.499774      9.633867      9.476902
  Au      9.812039      8.726006      5.066452
  Au      5.995943      6.229625      5.025888
  Au      5.262799      9.040869      5.169442
  Au      3.404329      7.030825      5.577109
  Au      5.003309      5.875298      7.610629
  Au      4.293639      8.614621      7.751282
  Au      7.244589      8.142285      3.417054
  Au      8.716770      6.185040      4.671404
  Au      7.607894     10.437978      4.888810
  Au      6.521233     10.159132      7.488870
  Fe      8.450527      8.261762      7.207766
17
Coordinates from ORCA-job pbe E -3436.729350254428
  Au      9.220830      6.872775      9.334757
  Au      7.699424      5.639490      7.257574
  Au      6.544935      7.665279      9.080491
  Au     10.395383      6.530198      6.830121
  Au      9.295379     10.748386      7.046345
  Au      8.495627      9.636587      9.476896
  Au      9.811573      8.725859      5.069595
  Au      5.996037      6.223416      5.024396
  Au      5.259861      9.046061      5.168762
  Au      3.409101      7.031979      5.574368
  Au      5.007123      5.878206      7.610701
  Au      4.298116      8.614192      7.751382
  Au      7.239358      8.140945      3.417574
  Au      8.714416      6.186873      4.672812
  Au      7.606539     10.435388      4.890058
  Au      6.520724     10.167685      7.489030
  Fe      8.441421      8.259190      7.210112
17
Coordinates from ORCA-job pbe E -3436.729528175920
  Au      9.219600      6.868906      9.337527
  Au      7.703075      5.632045      7.258547
  Au      6.545621      7.665596      9.079927
  Au     10.395363      6.543235      6.826894
  Au      9.301533     10.737577      7.041568
  Au      8.493114      9.638805      9.479790
  Au      9.814684      8.726718      5.070511
  Au      5.996890      6.219809      5.023744
  Au      5.259046      9.049370      5.168703
  Au      3.412679      7.032838      5.574013
  Au      5.009917      5.879911      7.610073
  Au      4.301364      8.614494      7.750709
  Au      7.238568      8.140826      3.417284
  Au      8.711158      6.188538      4.673399
  Au      7.604188     10.432380      4.890517
  Au      6.520418     10.175736      7.490709
  Fe      8.428632      8.255723      7.211060
17
Coordinates from ORCA-job pbe E -3436.729722630287
  Au      9.217336      6.867539      9.338630
  Au      7.707038      5.628834      7.259224
  Au      6.543743      7.665353      9.080468
  Au     10.395331      6.551986      6.825708
  Au      9.305789     10.730385      7.039488
  Au      8.491365      9.638588      9.481020
  Au      9.819418      8.728103      5.069269
  Au      5.997816      6.219521      5.024607
  Au      5.259723      9.049628      5.169632
  Au      3.413099      7.032601      5.576571
  Au      5.012122      5.879468      7.609535
  Au      4.302808      8.615895      7.750383
  Au      7.238485      8.140782      3.415599
  Au      8.709705      6.191620      4.673517
  Au      7.604382     10.429230      4.890173
  Au      6.522666     10.180677      7.491971
  Fe      8.415020      8.252300      7.209180
17
Coordinates from ORCA-job pbe E -3436.729947521508
  Au      9.216676      6.870708      9.340852
  Au      7.710749      5.628981      7.259414
  Au      6.538233      7.664127      9.084501
  Au     10.394797      6.557945      6.824016
  Au      9.307328     10.725538      7.037180
  Au      8.493205      9.634893      9.483162
  Au      9.824748      8.729718      5.064962
  Au      5.998751      6.224707      5.027005
  Au      5.263412      9.045253      5.171626
  Au      3.409703      7.031676      5.581825
  Au      5.012768      5.875604      7.608127
  Au      4.301738      8.619943      7.749160
  Au      7.242520      8.141916      3.413413
  Au      8.710542      6.193911      4.672682
  Au      7.605891     10.427400      4.888968
  Au      6.526027     10.181919      7.492334
  Fe      8.398762      8.248269      7.205745
17
Coordinates from ORCA-job pbe E -3436.730168417847
  Au      9.213353      6.872054      9.337283
  Au      7.714790      5.628364      7.259211
  Au      6.533607      7.663173      9.087678
  Au     10.395713      6.566806      6.826492
  Au      9.312491     10.718433      7.038938
  Au      8.492299      9.632271      9.479555
  Au      9.825790      8.730223      5.062240
  Au      5.999855      6.227905      5.029060
  Au      5.265769      9.042410      5.173233
  Au      3.407772      7.030678      5.586092
  Au      5.015306      5.873710      7.608226
  Au      4.302476      8.622400      7.749650
  Au      7.244857      8.142312      3.411925
  Au      8.711773      6.194866      4.672487
  Au      7.607657     10.427464      4.888440
  Au      6.529665     10.185031      7.492801
  Fe      8.382674      8.244409      7.201664
17
Coordinates from ORCA-job pbe E -3436.730399458179
  Au      9.208775      6.878375      9.331548
  Au      7.717725      5.628851      7.257021
  Au      6.526967      7.661448      9.097024
  Au     10.397870      6.577276      6.829051
  Au      9.319134     10.710553      7.040940
  Au      8.492917      9.624737      9.473355
  Au      9.819260      8.728731      5.059378
  Au      6.001898      6.235912      5.032259
  Au      5.271226      9.035884      5.175436
  Au      3.404408      7.029410      5.591117
  Au      5.018310      5.870367      7.608726
  Au      4.302756      8.626324      7.750648
  Au      7.251125      8.143534      3.411223
  Au      8.716758      6.191361      4.671391
  Au      7.610579     10.433007      4.887336
  Au      6.532564     10.186889      7.491335
  Fe      8.363575      8.239851      7.197186
17
Coordinates from ORCA-job pbe E -3436.730609355827
  Au      9.209593      6.877560      9.323054
  Au      7.720598      5.624461      7.257702
  Au      6.522039      7.660131      9.100234
  Au     10.399107      6.589310      6.834846
  Au      9.325325     10.700382      7.045206
  Au      8.493351      9.626231      9.464892
  Au      9.815831      8.727874      5.059049
  Au      6.003574      6.238550      5.034243
  Au      5.274324      9.034255      5.177433
  Au      3.404277      7.029549      5.593903
  Au      5.020455      5.869437      7.609035
  Au      4.304443      8.628644      7.751064
  Au      7.254491      8.144450      3.410586
  Au      8.719036      6.189673      4.672106
  Au      7.611345     10.435039      4.888246
  Au      6.532775     10.191586      7.492575
  Fe      8.345284      8.235380      7.190801
17
Coordinates from ORCA-job pbe E -3436.730835849420
  Au      9.209541      6.880501      9.315609
  Au      7.720253      5.614762      7.255206
  Au      6.517629      7.658227      9.112480
  Au     10.403184      6.605077      6.837315
  Au      9.334646     10.688325      7.045919
  Au      8.493544      9.623332      9.456980
  Au      9.795943      8.722358      5.064750
  Au      6.008476      6.243922      5.036035
  Au      5.281889      9.032482      5.179241
  Au      3.408947      7.031663      5.595688
  Au      5.024222      5.869545      7.610332
  Au      4.308544      8.631677      7.752313
  Au      7.259991      8.145860      3.410697
  Au      8.726277      6.179106      4.670639
  Au      7.611543     10.446339      4.888105
  Au      6.526612     10.199026      7.490667
  Fe      8.324607      8.230309      7.182996
17
Coordinates from ORCA-job pbe E -3436.731053602558
  Au      9.206989      6.876450      9.309379
  Au      7.721488      5.606064      7.257771
  Au      6.518953      7.658833      9.114613
  Au     10.402587      6.614469      6.839812
  Au      9.339820     10.679753      7.048488
  Au      8.491783      9.626581      9.450753
  Au      9.790632      8.721144      5.065970
  Au      6.013206      6.247839      5.037817
  Au      5.287103      9.030640      5.180402
  Au      3.412909      7.031649      5.599233
  Au      5.027373      5.869994      7.612009
  Au      4.310169      8.631506      7.754563
  Au      7.265645      8.146730      3.410414
  Au      8.728037      6.176479      4.670128
  Au      7.612370     10.450123      4.887490
  Au      6.523931     10.208777      7.494917
  Fe      8.302853      8.225479      7.171214
17
Coordinates from ORCA-job pbe E -3436.731294363251
  Au      9.201862      6.873738      9.314695
  Au      7.722133      5.588362      7.261097
  Au      6.527326      7.660720      9.117883
  Au     10.400404      6.618557      6.831166
  Au      9.339258     10.675921      7.039090
  Au      8.484696      9.624762      9.456719
  Au      9.780528      8.718446      5.069899
  Au      6.022545      6.252075      5.039082
  Au      5.297191      9.031666      5.181798
  Au      3.423891      7.034434      5.603707
  Au      5.030775      5.872747      7.615057
  Au      4.314556      8.630979      7.757692
  Au      7.274753      8.148701      3.411370
  Au      8.731372      6.168514      4.667173
  Au      7.611296     10.458278      4.885269
  Au      6.515709     10.224848      7.499794
  Fe      8.277553      8.219763      7.153484
17
Coordinates from ORCA-job pbe E -3436.731516563682
  Au      9.204078      6.875101      9.304781
  Au      7.727664      5.583116      7.264972
  Au      6.520718      7.659128      9.117557
  Au     10.396387      6.626066      6.836646
  Au      9.338502     10.667347      7.043636
  Au      8.486825      9.624976      9.447081
  Au      9.780660      8.718715      5.063658
  Au      6.026887      6.256411      5.043496
  Au      5.303669      9.029794      5.186404
  Au      3.423068      7.034438      5.608761
  Au      5.031213      5.870891      7.615971
  Au      4.314827      8.633654      7.758454
  Au      7.286032      8.151628      3.414356
  Au      8.734605      6.163294      4.668760
  Au      7.610936     10.463343      4.887365
  Au      6.517634     10.230859      7.503841
  Fe      8.252142      8.213749      7.139235
17
Coordinates from ORCA-job pbe E -3436.731722509879
  Au      9.197012      6.884324      9.302500
  Au      7.734376      5.579785      7.268869
  Au      6.514905      7.657971      9.117540
  Au     10.390561      6.629835      6.838752
  Au      9.336600     10.660940      7.048461
  Au      8.490593      9.616072      9.441920
  Au      9.783909      8.720302      5.053161
  Au      6.032373      6.257634      5.048703
  Au      5.308556      9.030138      5.191773
  Au      3.424873      7.033481      5.613004
  Au      5.034769      5.867738      7.616254
  Au      4.315353      8.636925      7.759467
  Au      7.295557      8.153645      3.420036
  Au      8.736468      6.156445      4.668837
  Au      7.609067     10.470601      4.887798
  Au      6.522141     10.237885      7.508371
  Fe      8.228733      8.208789      7.119529
17
Coordinates from ORCA-job pbe E -3436.731889566753
  Au      9.204590      6.897101      9.297795
  Au      7.737979      5.570852      7.273988
  Au      6.510475      7.656857      9.117901
  Au     10.384861      6.636056      6.842733
  Au      9.332148     10.654242      7.040807
  Au      8.489321      9.600987      9.442988
  Au      9.783961      8.720938      5.043737
  Au      6.036687      6.257568      5.053472
  Au      5.313176      9.032378      5.197093
  Au      3.428278      7.035805      5.611034
  Au      5.036343      5.865695      7.614713
  Au      4.316237      8.641211      7.759483
  Au      7.306175      8.155436      3.432675
  Au      8.738543      6.146262      4.671517
  Au      7.609168     10.480193      4.891081
  Au      6.523273     10.247362      7.515738
  Fe      8.204632      8.203567      7.098219
17
Coordinates from ORCA-job pbe E -3436.731982646074
  Au      9.190641      6.907820      9.305665
  Au      7.741929      5.560125      7.283469
  Au      6.510298      7.656462      9.117219
  Au     10.379701      6.642670      6.828162
  Au      9.333749     10.644109      7.047132
  Au      8.507991      9.598622      9.434905
  Au      9.781642      8.719996      5.035843
  Au      6.040563      6.254539      5.056166
  Au      5.314476      9.035472      5.201336
  Au      3.434164      7.035251      5.604075
  Au      5.038632      5.864079      7.614044
  Au      4.316739      8.642634      7.756980
  Au      7.313496      8.157534      3.449510
  Au      8.745342      6.138293      4.675083
  Au      7.604787     10.489836      4.896607
  Au      6.517305     10.256495      7.521708
  Fe      8.184394      8.198572      7.077069
17
Coordinates from ORCA-job pbe E -3436.732037465336
  Au      9.198301      6.903340      9.287017
  Au      7.741325      5.549984      7.290191
  Au      6.513027      7.657392      9.114891
  Au     10.383171      6.662822      6.843898
  Au      9.344579     10.628286      7.050694
  Au      8.499999      9.600432      9.422882
  Au      9.768348      8.717130      5.032426
  Au      6.043473      6.255774      5.058419
  Au      5.318283      9.036117      5.203446
  Au      3.438009      7.037677      5.601791
  Au      5.039818      5.866387      7.614833
  Au      4.318950      8.642439      7.758977
  Au      7.320752      8.158667      3.459812
  Au      8.748035      6.128382      4.678209
  Au      7.605487     10.499334      4.900019
  Au      6.513302     10.264848      7.530767
  Fe      8.160987      8.193500      7.056705
17
Coordinates from ORCA-job pbe E -3436.732142819587
  Au      9.198530      6.907584      9.296768
  Au      7.740610      5.553868      7.292185
  Au      6.513292      7.657400      9.113107
  Au     10.382995      6.661755      6.836291
  Au      9.344775     10.629984      7.040843
  Au      8.499703      9.595351      9.433191
  Au      9.783786      8.721403      5.027374
  Au      6.042277      6.250881      5.059205
  Au      5.314869      9.039447      5.204669
  Au      3.436355      7.037126      5.598856
  Au      5.037131      5.865181      7.612249
  Au      4.315367      8.641520      7.757242
  Au      7.315141      8.157234      3.463962
  Au      8.746088      6.133462      4.682533
  Au      7.607980     10.495168      4.903474
  Au      6.515570     10.261393      7.532598
  Fe      8.161380      8.193751      7.050430
17
Coordinates from ORCA-job pbe E -3436.732171682309
  Au      9.198977      6.908833      9.296288
  Au      7.739743      5.553300      7.294421
  Au      6.514392      7.657670      9.111674
  Au     10.384348      6.664532      6.836144
  Au      9.347074     10.627777      7.039899
  Au      8.499346      9.595122      9.431800
  Au      9.785302      8.722075      5.021891
  Au      6.042485      6.250925      5.060379
  Au      5.315778      9.039797      5.206574
  Au      3.435752      7.037622      5.596610
  Au      5.033836      5.865364      7.613043
  Au      4.313318      8.639972      7.757878
  Au      7.318907      8.158401      3.470745
  Au      8.747129      6.130166      4.684917
  Au      7.607286     10.498188      4.906768
  Au      6.514036     10.259760      7.534193
  Fe      8.158139      8.193006      7.041753
17
Coordinates from ORCA-job pbe E -3436.732241299509
  Au      9.199924      6.909406      9.291860
  Au      7.733095      5.557281      7.299056
  Au      6.517765      7.658735      9.104277
  Au     10.389222      6.675227      6.837266
  Au      9.360253     10.619531      7.039344
  Au      8.498231      9.598050      9.426315
  Au      9.796759      8.725449      5.008757
  Au      6.040847      6.248605      5.064412
  Au      5.313561      9.040840      5.211244
  Au      3.432414      7.036960      5.588897
  Au      5.024639      5.866042      7.615839
  Au      4.304323      8.631985      7.761209
  Au      7.323593      8.159634      3.487278
  Au      8.747428      6.128379      4.696067
  Au      7.608798     10.501581      4.918378
  Au      6.509804     10.251975      7.537402
  Fe      8.155189      8.192829      7.017374
17
Coordinates from ORCA-job pbe E -3436.732263839468
  Au      9.200649      6.911526      9.288519
  Au      7.729314      5.559535      7.302129
  Au      6.518804      7.659025      9.097879
  Au     10.394395      6.688369      6.838978
  Au      9.371614     10.609506      7.038551
  Au      8.496911      9.597991      9.422562
  Au      9.800836      8.726805      4.998990
  Au      6.037995      6.248131      5.066561
  Au      5.312218      9.040513      5.214142
  Au      3.430315      7.037646      5.584356
  Au      5.018139      5.865896      7.617915
  Au      4.299036      8.628434      7.763167
  Au      7.329268      8.161572      3.499219
  Au      8.748155      6.124235      4.703580
  Au      7.607479     10.505028      4.926820
  Au      6.506915     10.245706      7.538835
  Fe      8.153803      8.192591      7.002772
17
Coordinates from ORCA-job pbe E -3436.732270334273
  Au      9.200932      6.911859      9.287105
  Au      7.727067      5.560122      7.303034
  Au      6.519232      7.659295      9.093143
  Au     10.396591      6.692161      6.839309
  Au      9.376373     10.606928      7.039107
  Au      8.497242      9.598615      9.421569
  Au      9.806597      8.728367      4.996322
  Au      6.036449      6.247054      5.067496
  Au      5.309897      9.040345      5.214919
  Au      3.429203      7.037264      5.582758
  Au      5.015882      5.864855      7.618220
  Au      4.295858      8.627341      7.763684
  Au      7.327635      8.160722      3.501305
  Au      8.746889      6.127170      4.708463
  Au      7.608578     10.502389      4.931166
  Au      6.505479     10.244615      7.539650
  Fe      8.155943      8.193407      6.997724
17
Coordinates from ORCA-job pbe E -3436.732275859312
  Au      9.200329      6.911774      9.285993
  Au      7.726152      5.560151      7.303442
  Au      6.518159      7.659319      9.089358
  Au     10.399387      6.697323      6.839118
  Au      9.381250     10.603612      7.039039
  Au      8.496515      9.598384      9.421588
  Au      9.805536      8.728266      4.992531
  Au      6.035565      6.247530      5.067831
  Au      5.309139      9.039360      5.214748
  Au      3.428658      7.036968      5.583408
  Au      5.014847      5.862867      7.617925
  Au      4.293651      8.628412      7.763653
  Au      7.329436      8.160795      3.503284
  Au      8.746470      6.125856      4.712134
  Au      7.607858     10.503024      4.934528
  Au      6.504996     10.244736      7.540218
  Fe      8.157901      8.194133      6.996177
