11
Coordinates from ORCA-job pbe E -2621.701798312748
  Au      7.054834     10.401249      9.398981
  Au      5.479198      6.654015      9.755606
  Au      4.313998      9.108921      9.476865
  Au      4.926353     11.260962      7.741885
  Au      8.220091      7.946433      9.678114
  Au      7.669960      5.481614      8.398173
  Au      7.116691     10.088258      6.384278
  Au      4.375890      8.796087      6.462252
  Au      5.541657      6.341300      6.740577
  Au      8.282636      7.633686      6.663610
  Fe      6.298106      8.371271      8.070025
11
Coordinates from ORCA-job pbe E -2621.702777214269
  Au      7.074153     10.399806      9.395124
  Au      5.459975      6.654140      9.750493
  Au      4.302475      9.093128      9.473444
  Au      4.921591     11.271034      7.740479
  Au      8.232082      7.961397      9.671822
  Au      7.674614      5.471567      8.399588
  Au      7.136047     10.088136      6.389333
  Au      4.363932      8.781034      6.468519
  Au      5.522337      6.342805      6.744557
  Au      8.294089      7.649486      6.666981
  Fe      6.298119      8.371262      8.070027
11
Coordinates from ORCA-job pbe E -2621.703938349336
  Au      7.106494     10.401426      9.376339
  Au      5.427982      6.647913      9.730531
  Au      4.279420      9.068801      9.455354
  Au      4.925574     11.262876      7.740737
  Au      8.256709      7.981788      9.649625
  Au      7.670564      5.479631      8.399337
  Au      7.168163     10.094463      6.409280
  Au      4.339376      8.760643      6.490677
  Au      5.489954      6.341209      6.763524
  Au      8.317045      7.673796      6.684935
  Fe      6.298132      8.371251      8.070030
11
Coordinates from ORCA-job pbe E -2621.704891695285
  Au      7.137026     10.412771      9.352677
  Au      5.397655      6.631409      9.707666
  Au      4.249720      9.051771      9.432641
  Au      4.931897     11.249915      7.741468
  Au      8.288282      7.994049      9.624412
  Au      7.664251      5.492528      8.398610
  Au      7.198584     10.111057      6.432193
  Au      4.307850      8.748412      6.515814
  Au      5.459380      6.329833      6.787322
  Au      8.346631      7.690810      6.707533
  Fe      6.298137      8.371241      8.070031
11
Coordinates from ORCA-job pbe E -2621.718329831821
  Au      7.164454     10.426270      9.329070
  Au      5.370007      6.612935      9.685098
  Au      4.220242      9.038547      9.410308
  Au      4.941687     11.229808      7.742973
  Au      8.319764      8.003020      9.599907
  Au      7.654554      5.512608      8.397103
  Au      7.226274     10.129623      6.454909
  Au      4.276416      8.739451      6.540215
  Au      5.431879      6.316298      6.810968
  Au      8.376007      7.704001      6.729785
  Fe      6.298130      8.371236      8.070032
11
Coordinates from ORCA-job pbe E -2621.719329901017
  Au      7.150998     10.431697      9.336930
  Au      5.382818      6.609426      9.694307
  Au      4.225021      9.052583      9.418088
  Au      4.942486     11.228102      7.743268
  Au      8.314712      7.991121      9.610008
  Au      7.653790      5.514351      8.396802
  Au      7.213431     10.133109      6.445739
  Au      4.281457      8.751351      6.530112
  Au      5.445333      6.310851      6.803046
  Au      8.371245      7.689963      6.722038
  Fe      6.298124      8.371241      8.070031
11
Coordinates from ORCA-job pbe E -2621.720666369589
  Au      7.116533     10.428335      9.361107
  Au      5.415825      6.618117      9.718457
  Au      4.250810      9.077509      9.440965
  Au      4.941823     11.229473      7.743391
  Au      8.287983      7.971769      9.636202
  Au      7.654426      5.513040      8.396672
  Au      7.180383     10.124350      6.421561
  Au      4.308172      8.770711      6.503958
  Au      5.479819      6.314200      6.778820
  Au      8.345519      7.665038      6.699204
  Fe      6.298121      8.371255      8.070029
11
Coordinates from ORCA-job pbe E -2621.721358857069
  Au      7.083345     10.419121      9.385266
  Au      5.447619      6.632361      9.741342
  Au      4.280126      9.097713      9.463310
  Au      4.938452     11.236639      7.742698
  Au      8.257746      7.956846      9.660689
  Au      7.657776      5.505894      8.397363
  Au      7.148542     10.110066      6.398642
  Au      4.338408      8.785637      6.479511
  Au      5.513012      6.323422      6.754630
  Au      8.316266      7.644831      6.676889
  Fe      6.298121      8.371265      8.070027
11
Coordinates from ORCA-job pbe E -2621.721549301014
  Au      7.056590     10.410950      9.406294
  Au      5.473263      6.644766      9.761082
  Au      4.304190      9.113587      9.482560
  Au      4.933137     11.248010      7.741355
  Au      8.232858      7.945434      9.681432
  Au      7.663082      5.494530      8.398709
  Au      7.122881     10.097637      6.378873
  Au      4.363292      8.797057      6.458776
  Au      5.539772      6.331595      6.733607
  Au      8.292228      7.628963      6.657653
  Fe      6.298122      8.371268      8.070027
11
Coordinates from ORCA-job pbe E -2621.721553337977
  Au      7.057391     10.411522      9.407118
  Au      5.472471      6.644333      9.761892
  Au      4.303109      9.113351      9.483203
  Au      4.932866     11.248723      7.741193
  Au      8.233911      7.945797      9.682002
  Au      7.663364      5.493806      8.398872
  Au      7.123689     10.098089      6.378071
  Au      4.362246      8.796688      6.458187
  Au      5.538959      6.331027      6.732806
  Au      8.293284      7.629195      6.656995
  Fe      6.298123      8.371264      8.070028
