15
E=  -1599.72897880;c=0;m=5
Au      4.353599099027040      6.986797772991350      9.363409863785900
Au      6.961530502386250      6.190664950313110      8.844644808129100
Au      6.832571475617740      8.539224752791879      4.768549463350300
Au      7.291030685075380      5.964870161545480      5.946535039141810
Au      5.205158235349130      7.631759228300730      6.833341076834500
Au      9.870668046672330      5.078634196202370      5.431671371617460
Au      9.590504669429080      7.803882972910230      5.206039617886530
Au      9.604807755622080      6.286438262538100      7.883818890860630
Au      8.776211575951709     10.414741774346570      5.781459961767570
Au     10.490094775513789      9.053758021262119      7.654101120008100
Au      6.151334578601590      9.066310419712901      9.386429100369870
Au      8.301773683788721     10.685437040102601      8.632662756924381
Au      8.842293966836341      8.118403364380400      9.833094624414700
Au      6.072052656363590     10.413486549011569      6.828518597695920
Fe      7.846791613765230      8.358345103590590      7.299598117213220
