17
Coordinates from ORCA-job pbe E -3324.025424003895
  Au      9.325780      7.639178      8.212379
  Au      8.755783      7.270968      5.525071
  Au      6.325828      7.081119      4.121588
  Au      5.061673      6.899302     10.142669
  Au      7.472416      5.608951      8.887760
  Au      6.898566      5.234766      6.171095
  Au      4.124925      6.294235      5.688505
  Au      9.229512      9.868004      6.497981
  Au      7.331945      9.637594      4.462146
  Au      6.587947     10.785304      6.927466
  Au      8.305455     10.270083      9.103006
  Au      5.583932      9.649287      9.419580
  Au      3.867767     10.774331      7.499999
  Au      3.745202      8.007176      7.902291
  Au      4.743380      9.105079      5.416867
  Au      7.656181      7.943261     10.454624
  Mn      5.228463      5.948236      7.870260
17
Coordinates from ORCA-job pbe E -3324.030536554420
  Au      9.306913      7.638415      8.206014
  Au      8.740993      7.273027      5.538006
  Au      6.329943      7.091499      4.137226
  Au      5.066949      6.926185     10.157867
  Au      7.497840      5.613173      8.891480
  Au      6.920554      5.236222      6.156762
  Au      4.122752      6.315699      5.666024
  Au      9.200779      9.851573      6.506065
  Au      7.323695      9.628140      4.490725
  Au      6.586748     10.763370      6.930748
  Au      8.287094     10.254129      9.083370
  Au      5.589596      9.645182      9.405202
  Au      3.886659     10.761176      7.498156
  Au      3.745052      8.020126      7.900599
  Au      4.754583      9.104613      5.428387
  Au      7.653102      7.948948     10.436586
  Mn      5.231499      5.945400      7.870069
17
Coordinates from ORCA-job pbe E -3324.033896232364
  Au      9.305136      7.632505      8.202749
  Au      8.740864      7.268442      5.542640
  Au      6.331626      7.094059      4.142630
  Au      5.061966      6.961191     10.191647
  Au      7.537405      5.597728      8.900062
  Au      6.955055      5.216647      6.137336
  Au      4.103744      6.340702      5.629051
  Au      9.190763      9.845846      6.508668
  Au      7.320473      9.626925      4.504129
  Au      6.583682     10.758721      6.932098
  Au      8.278894     10.249866      9.072912
  Au      5.586855      9.646235      9.400904
  Au      3.887028     10.764955      7.498125
  Au      3.726878      8.030178      7.903019
  Au      4.753848      9.106969      5.433147
  Au      7.652333      7.949972     10.430708
  Mn      5.228202      5.925935      7.873459
17
Coordinates from ORCA-job pbe E -3324.035529004458
  Au      9.296340      7.631786      8.193663
  Au      8.736366      7.270796      5.554182
  Au      6.334930      7.095567      4.170297
  Au      5.060667      6.999651     10.194209
  Au      7.558379      5.592296      8.890428
  Au      6.979247      5.213113      6.138705
  Au      4.099816      6.376948      5.617313
  Au      9.183224      9.840849      6.510827
  Au      7.317024      9.621664      4.518759
  Au      6.579571     10.751497      6.933937
  Au      8.270287     10.241418      9.062432
  Au      5.585290      9.635620      9.386436
  Au      3.892475     10.761304      7.497923
  Au      3.722249      8.029398      7.903826
  Au      4.758616      9.100593      5.449419
  Au      7.644571      7.944415     10.404818
  Mn      5.225700      5.909962      7.876114
17
Coordinates from ORCA-job pbe E -3324.036558739543
  Au      9.300451      7.635246      8.187627
  Au      8.742474      7.275935      5.557073
  Au      6.342079      7.090104      4.194232
  Au      5.043408      7.024805     10.201459
  Au      7.577095      5.572734      8.880386
  Au      7.002395      5.196179      6.145055
  Au      4.079734      6.399806      5.611215
  Au      9.186262      9.851626      6.508682
  Au      7.318108      9.627585      4.524023
  Au      6.579798     10.759098      6.932766
  Au      8.268816     10.245881      9.055463
  Au      5.581855      9.632109      9.370917
  Au      3.894763     10.772702      7.496516
  Au      3.710691      8.024309      7.906623
  Au      4.761554      9.101676      5.465460
  Au      7.642066      7.932810     10.382222
  Mn      5.213201      5.874273      7.883566
17
Coordinates from ORCA-job pbe E -3324.037239868794
  Au      9.304097      7.639630      8.188501
  Au      8.745258      7.280275      5.554134
  Au      6.343514      7.081680      4.224259
  Au      5.025151      7.039740     10.197989
  Au      7.590156      5.567043      8.865838
  Au      7.021260      5.194802      6.154067
  Au      4.063451      6.416546      5.617692
  Au      9.196334      9.861543      6.505169
  Au      7.316728      9.629353      4.519787
  Au      6.584324     10.770872      6.929814
  Au      8.269166     10.249147      9.058845
  Au      5.581123      9.625783      9.355573
  Au      3.894610     10.785090      7.495155
  Au      3.706342      8.017945      7.908199
  Au      4.767039      9.099700      5.480782
  Au      7.632265      7.917036     10.357479
  Mn      5.203934      5.840692      7.890002
17
Coordinates from ORCA-job pbe E -3324.037695691420
  Au      9.315141      7.655481      8.180140
  Au      8.758355      7.297600      5.553779
  Au      6.339952      7.076985      4.254188
  Au      4.998107      7.039653     10.191938
  Au      7.593422      5.555015      8.849725
  Au      7.031592      5.187562      6.170158
  Au      4.040036      6.419721      5.634078
  Au      9.204599      9.873448      6.502034
  Au      7.317995      9.636358      4.518972
  Au      6.595294     10.782586      6.925618
  Au      8.269767     10.256053      9.056934
  Au      5.583734      9.621702      9.333733
  Au      3.903233     10.794388      7.492325
  Au      3.708927      8.013987      7.908225
  Au      4.777697      9.101793      5.499595
  Au      7.617318      7.905070     10.333217
  Mn      5.189582      5.799475      7.898625
17
Coordinates from ORCA-job pbe E -3324.037959395162
  Au      9.322536      7.663287      8.188399
  Au      8.761219      7.302692      5.542329
  Au      6.329242      7.070363      4.281517
  Au      4.976737      7.033640     10.184564
  Au      7.600994      5.561175      8.842334
  Au      7.041168      5.195814      6.172334
  Au      4.023059      6.418413      5.650778
  Au      9.213906      9.881928      6.498990
  Au      7.317104      9.637165      4.508674
  Au      6.610196     10.798552      6.919706
  Au      8.272668     10.259944      9.065821
  Au      5.589534      9.617131      9.319969
  Au      3.902770     10.806221      7.490743
  Au      3.712924      8.010112      7.908351
  Au      4.788484      9.101173      5.509581
  Au      7.597103      7.892072     10.315291
  Mn      5.185109      5.767195      7.903904
17
Coordinates from ORCA-job pbe E -3324.038032543217
  Au      9.326281      7.666426      8.188103
  Au      8.764369      7.305140      5.540802
  Au      6.321216      7.072997      4.285681
  Au      4.971262      7.028019     10.182547
  Au      7.601785      5.563042      8.843824
  Au      7.040564      5.196583      6.170549
  Au      4.018720      6.414522      5.656249
  Au      9.214667      9.879895      6.499276
  Au      7.317200      9.636586      4.504674
  Au      6.612366     10.803466      6.918501
  Au      8.273998     10.260388      9.069558
  Au      5.592017      9.617035      9.315286
  Au      3.904880     10.802328      7.490692
  Au      3.718682      8.013206      7.906963
  Au      4.792439      9.102604      5.511990
  Au      7.588073      7.893828     10.314083
  Mn      5.186233      5.760812      7.904507
17
Coordinates from ORCA-job pbe E -3324.038071238449
  Au      9.325898      7.668118      8.185793
  Au      8.764051      7.306465      5.543394
  Au      6.315562      7.078037      4.289391
  Au      4.966065      7.018575     10.181235
  Au      7.603115      5.566947      8.846328
  Au      7.039357      5.198799      6.167048
  Au      4.014291      6.406940      5.661961
  Au      9.207741      9.874142      6.501624
  Au      7.321515      9.635343      4.503239
  Au      6.617771     10.811031      6.916325
  Au      8.278034     10.259480      9.069865
  Au      5.597906      9.618940      9.313352
  Au      3.900730     10.801007      7.491418
  Au      3.723107      8.015043      7.906072
  Au      4.798243      9.105368      5.509743
  Au      7.581370      7.898002     10.312078
  Mn      5.189997      5.754638      7.904421
17
Coordinates from ORCA-job pbe E -3324.038094997693
  Au      9.326210      7.664262      8.189005
  Au      8.762710      7.301433      5.542050
  Au      6.313443      7.079650      4.288500
  Au      4.967095      7.019498     10.179634
  Au      7.604009      5.564975      8.848859
  Au      7.038603      5.195723      6.164904
  Au      4.015404      6.408376      5.662708
  Au      9.203502      9.874602      6.502446
  Au      7.321695      9.636845      4.502142
  Au      6.614377     10.814614      6.916655
  Au      8.278374     10.261417      9.070692
  Au      5.598317      9.620293      9.311397
  Au      3.901091     10.795340      7.491958
  Au      3.727618      8.017857      7.904725
  Au      4.799169      9.107508      5.510428
  Au      7.579960      7.899973     10.313550
  Mn      5.193175      5.754512      7.903631
17
Coordinates from ORCA-job pbe E -3324.038109345791
  Au      9.326028      7.661861      8.188758
  Au      8.762459      7.298994      5.543684
  Au      6.314413      7.080074      4.288700
  Au      4.968870      7.023129     10.178218
  Au      7.604643      5.562532      8.849131
  Au      7.038825      5.192729      6.164936
  Au      4.017032      6.412114      5.662247
  Au      9.201050      9.872996      6.503222
  Au      7.322333      9.637397      4.501644
  Au      6.610990     10.817857      6.917036
  Au      8.279196     10.262209      9.070897
  Au      5.598655      9.620936      9.312044
  Au      3.897861     10.795461      7.492574
  Au      3.727550      8.016716      7.904724
  Au      4.798968      9.108160      5.509211
  Au      7.581149      7.900302     10.312950
  Mn      5.194730      5.753410      7.903308
17
Coordinates from ORCA-job pbe E -3324.038118863820
  Au      9.325778      7.659005      8.188905
  Au      8.761347      7.295850      5.545722
  Au      6.317321      7.080057      4.290449
  Au      4.969064      7.025814     10.176299
  Au      7.605859      5.559448      8.849373
  Au      7.039520      5.189118      6.164648
  Au      4.017219      6.415329      5.662942
  Au      9.195145      9.870058      6.504805
  Au      7.323288      9.638564      4.502002
  Au      6.606964     10.823127      6.917251
  Au      8.280042     10.263752      9.070142
  Au      5.599790      9.623238      9.311260
  Au      3.894256     10.796170      7.493148
  Au      3.728204      8.015856      7.904543
  Au      4.799910      9.110916      5.508234
  Au      7.583703      7.899862     10.310769
  Mn      5.197343      5.750713      7.902794
17
Coordinates from ORCA-job pbe E -3324.038120865571
  Au      9.326877      7.658931      8.189430
  Au      8.762021      7.295466      5.545611
  Au      6.317129      7.079788      4.290942
  Au      4.969423      7.026647     10.175521
  Au      7.605943      5.558655      8.849821
  Au      7.039236      5.187380      6.164281
  Au      4.017135      6.416059      5.663252
  Au      9.193222      9.868782      6.505574
  Au      7.322984      9.639048      4.501853
  Au      6.606929     10.824436      6.917203
  Au      8.279638     10.264202      9.070360
  Au      5.600501      9.623573      9.311146
  Au      3.892976     10.796169      7.493490
  Au      3.728672      8.016067      7.904370
  Au      4.800196      9.111570      5.507743
  Au      7.583450      7.899661     10.310206
  Mn      5.198419      5.750440      7.902485
