15
E=  -1600.08826981;c=0;m=3
Au      7.946285814042040     10.563559896374990      6.585373015187040
Au      9.897693966113520      8.577148534119010      7.306300267845320
Au      8.080550626202911      9.635554717801490      9.246768938695110
Au      8.713819808211721      6.848974465773800      9.397826904757260
Au      8.915015842859670      5.962680520970920      6.684638397304620
Au      8.515540245502701      8.058297357325960      4.837691606537590
Au      7.403448064232880     10.405807835480390      3.872797865208240
Au      4.543156233731610      7.362317745451530      7.303673384671880
Au      6.374380636414210      6.189959355241550      5.434477397271760
Au      5.637527396698460      8.960339253592791      5.369527590911780
Au      5.520029647106240      9.950716269192331      8.058071146100330
Au      6.621152661859070      5.292778596087300      8.184850174447050
Au      4.222790266891850      5.763530597467320      9.491460454725811
Au      6.051725019273750      7.798009871235000      9.932599302821290
Fe      7.227843570859340      7.934172683885660      7.358566533515080
