15
Coordinates from ORCA-job pbe E -3165.058057757174
  Au      7.946286     10.563560      6.585373
  Au      9.897694      8.577149      7.306300
  Au      8.080551      9.635555      9.246769
  Au      8.713820      6.848974      9.397827
  Au      8.915016      5.962681      6.684638
  Au      8.515540      8.058297      4.837692
  Au      7.403448     10.405808      3.872798
  Au      4.543156      7.362318      7.303673
  Au      6.374381      6.189959      5.434477
  Au      5.637527      8.960339      5.369528
  Au      5.520030      9.950716      8.058071
  Au      6.621153      5.292779      8.184850
  Au      4.222790      5.763531      9.491460
  Au      6.051725      7.798010      9.932599
  Fe      7.227844      7.934173      7.358567
15
Coordinates from ORCA-job pbe E -3165.062350946257
  Au      7.944861     10.508849      6.609143
  Au      9.857357      8.589952      7.274626
  Au      8.111832      9.628678      9.258869
  Au      8.662184      6.845938      9.385627
  Au      8.944836      5.963158      6.701470
  Au      8.502809      8.052902      4.895558
  Au      7.403230     10.374720      3.917749
  Au      4.564132      7.372638      7.296085
  Au      6.330976      6.202981      5.421237
  Au      5.643210      8.947625      5.389718
  Au      5.480659      9.946147      8.031440
  Au      6.647682      5.344732      8.173290
  Au      4.262754      5.790355      9.465986
  Au      6.089648      7.800679      9.886760
  Fe      7.224790      7.934492      7.357067
15
Coordinates from ORCA-job pbe E -3165.063882859812
  Au      7.924806     10.509571      6.615365
  Au      9.884155      8.597826      7.272152
  Au      8.109398      9.612117      9.283582
  Au      8.662066      6.845220      9.386389
  Au      8.943167      5.945084      6.724929
  Au      8.485239      8.041031      4.892823
  Au      7.385064     10.373711      3.913876
  Au      4.543064      7.356697      7.312337
  Au      6.349036      6.225569      5.399988
  Au      5.652955      8.960793      5.373594
  Au      5.499665      9.964035      8.006430
  Au      6.656547      5.342203      8.163065
  Au      4.253379      5.781070      9.476578
  Au      6.095074      7.813314      9.887330
  Fe      7.227344      7.935607      7.356184
15
Coordinates from ORCA-job pbe E -3165.064115883741
  Au      7.903772     10.523153      6.623027
  Au      9.896072      8.611892      7.256110
  Au      8.101162      9.594214      9.308899
  Au      8.671452      6.839587      9.396893
  Au      8.936176      5.925340      6.748741
  Au      8.470316      8.023493      4.878632
  Au      7.410195     10.403880      3.879407
  Au      4.541357      7.354651      7.315274
  Au      6.367957      6.254982      5.376634
  Au      5.631510      8.950965      5.379725
  Au      5.520997      9.981938      7.974943
  Au      6.646833      5.324532      8.164657
  Au      4.267413      5.765966      9.503246
  Au      6.080871      7.814248      9.902352
  Fe      7.224877      7.935006      7.356083
15
Coordinates from ORCA-job pbe E -3165.064526479599
  Au      7.907147     10.520291      6.613967
  Au      9.883646      8.613360      7.250229
  Au      8.099928      9.590562      9.303105
  Au      8.676695      6.840616      9.397011
  Au      8.933010      5.931622      6.749515
  Au      8.470639      8.033578      4.878686
  Au      7.404185     10.383005      3.906377
  Au      4.549156      7.357235      7.314349
  Au      6.372083      6.246465      5.378507
  Au      5.636843      8.958273      5.371195
  Au      5.522832      9.984015      7.984454
  Au      6.642043      5.319927      8.162869
  Au      4.272547      5.773423      9.494162
  Au      6.074727      7.815632      9.905053
  Fe      7.225477      7.935844      7.355143
15
Coordinates from ORCA-job pbe E -3165.064589428140
  Au      7.917039     10.526186      6.616390
  Au      9.874010      8.614166      7.246190
  Au      8.100401      9.583407      9.300263
  Au      8.662154      6.835601      9.399510
  Au      8.930943      5.936773      6.754942
  Au      8.482113      8.032318      4.876297
  Au      7.388238     10.384093      3.899180
  Au      4.557705      7.359909      7.313588
  Au      6.375070      6.237324      5.385408
  Au      5.632970      8.961603      5.365609
  Au      5.524649      9.981475      7.995736
  Au      6.649650      5.320265      8.162525
  Au      4.266540      5.777796      9.485577
  Au      6.081913      7.817927      9.906345
  Fe      7.227566      7.935004      7.357065
15
Coordinates from ORCA-job pbe E -3165.064683335112
  Au      7.912899     10.530721      6.615889
  Au      9.874669      8.618079      7.241068
  Au      8.101905      9.584251      9.298376
  Au      8.658904      6.830322      9.405889
  Au      8.932334      5.938801      6.753852
  Au      8.479378      8.029765      4.871099
  Au      7.386990     10.382249      3.901639
  Au      4.562134      7.361611      7.312856
  Au      6.381638      6.241604      5.385046
  Au      5.632603      8.960547      5.367051
  Au      5.532169      9.982568      7.992967
  Au      6.645545      5.313673      8.163722
  Au      4.265335      5.776970      9.486127
  Au      6.076176      7.817489      9.912056
  Fe      7.228281      7.935199      7.356986
15
Coordinates from ORCA-job pbe E -3165.064769035065
  Au      7.906847     10.544345      6.611482
  Au      9.870391      8.626264      7.228724
  Au      8.102499      9.580060      9.293510
  Au      8.646492      6.820312      9.415945
  Au      8.931177      5.945081      6.755975
  Au      8.476562      8.027132      4.855628
  Au      7.400784     10.384224      3.903003
  Au      4.567124      7.358593      7.319426
  Au      6.390642      6.242264      5.389562
  Au      5.630832      8.960077      5.367322
  Au      5.542159      9.981342      7.995992
  Au      6.639827      5.302343      8.161835
  Au      4.270986      5.776184      9.488446
  Au      6.066931      7.820702      9.920581
  Fe      7.227705      7.934926      7.357193
15
Coordinates from ORCA-job pbe E -3165.064859946385
  Au      7.904520     10.563362      6.608541
  Au      9.860488      8.639757      7.207545
  Au      8.107923      9.573723      9.280540
  Au      8.620209      6.803157      9.431548
  Au      8.932356      5.961238      6.757794
  Au      8.479140      8.022491      4.836557
  Au      7.406950     10.383220      3.904623
  Au      4.575407      7.359603      7.321775
  Au      6.404031      6.241026      5.400350
  Au      5.635929      8.961864      5.367192
  Au      5.557189      9.976591      8.004264
  Au      6.634353      5.281971      8.153488
  Au      4.269535      5.768255      9.498340
  Au      6.053681      7.832139      9.935002
  Fe      7.229248      7.935449      7.357064
15
Coordinates from ORCA-job pbe E -3165.065004050127
  Au      7.902275     10.592572      6.609348
  Au      9.852141      8.657281      7.181362
  Au      8.119853      9.565106      9.261005
  Au      8.577951      6.776614      9.455429
  Au      8.937484      5.986234      6.760280
  Au      8.486064      8.011119      4.809975
  Au      7.403406     10.383798      3.899993
  Au      4.587293      7.356614      7.331384
  Au      6.418441      6.232452      5.423024
  Au      5.647941      8.964193      5.369172
  Au      5.573721      9.964006      8.023924
  Au      6.622830      5.258289      8.137136
  Au      4.277299      5.770702      9.495942
  Au      6.031887      7.849789      9.947858
  Fe      7.232372      7.935077      7.358792
15
Coordinates from ORCA-job pbe E -3165.065206686805
  Au      7.901269     10.614940      6.611296
  Au      9.849740      8.676290      7.153930
  Au      8.138953      9.561090      9.241239
  Au      8.534786      6.755702      9.471590
  Au      8.949964      6.011325      6.760029
  Au      8.493253      8.001795      4.790624
  Au      7.416804     10.386622      3.899084
  Au      4.587089      7.351357      7.339850
  Au      6.414177      6.213893      5.447380
  Au      5.666260      8.963914      5.376626
  Au      5.569961      9.947457      8.049225
  Au      6.615732      5.240328      8.111477
  Au      4.284722      5.768027      9.500896
  Au      6.014316      7.876129      9.951830
  Fe      7.233932      7.934978      7.359549
15
Coordinates from ORCA-job pbe E -3165.065356016356
  Au      7.899424     10.605422      6.625687
  Au      9.859098      8.681875      7.147567
  Au      8.154343      9.564458      9.235708
  Au      8.523071      6.758322      9.464706
  Au      8.962991      6.018516      6.758606
  Au      8.492544      7.992709      4.804485
  Au      7.427604     10.386173      3.903468
  Au      4.573771      7.348385      7.339614
  Au      6.392593      6.201100      5.446667
  Au      5.678653      8.962351      5.382636
  Au      5.545336      9.945776      8.056446
  Au      6.617358      5.247238      8.096882
  Au      4.296406      5.767810      9.504703
  Au      6.015020      7.888355      9.938733
  Fe      7.232747      7.935357      7.358716
15
Coordinates from ORCA-job pbe E -3165.065400680248
  Au      7.893393     10.611387      6.629606
  Au      9.860737      8.690655      7.134882
  Au      8.160490      9.561711      9.227066
  Au      8.512428      6.751799      9.471052
  Au      8.965924      6.028486      6.759921
  Au      8.489228      7.985817      4.799432
  Au      7.436347     10.382376      3.912206
  Au      4.577721      7.350604      7.338110
  Au      6.393017      6.195993      5.452265
  Au      5.680441      8.960742      5.385476
  Au      5.545358      9.942716      8.063076
  Au      6.614092      5.239978      8.087252
  Au      4.300838      5.768147      9.504907
  Au      6.007880      7.898078      9.940523
  Fe      7.233064      7.935360      7.358848
15
Coordinates from ORCA-job pbe E -3165.065424998513
  Au      7.888511     10.611043      6.632537
  Au      9.864644      8.693050      7.131124
  Au      8.162352      9.560660      9.228578
  Au      8.519178      6.752452      9.473098
  Au      8.967423      6.027189      6.762892
  Au      8.484313      7.982263      4.800310
  Au      7.439798     10.379519      3.919382
  Au      4.580655      7.354208      7.333675
  Au      6.392481      6.195411      5.446114
  Au      5.673235      8.959834      5.383859
  Au      5.543162      9.948207      8.060376
  Au      6.614002      5.238194      8.088857
  Au      4.300135      5.769761      9.502134
  Au      6.007965      7.896954      9.942522
  Fe      7.233107      7.935101      7.359164
15
Coordinates from ORCA-job pbe E -3165.065434708834
  Au      7.885769     10.613809      6.636801
  Au      9.863555      8.697271      7.124158
  Au      8.166599      9.558431      9.226797
  Au      8.512132      6.749023      9.476134
  Au      8.970227      6.030375      6.765508
  Au      8.483027      7.977250      4.799068
  Au      7.442783     10.379366      3.920943
  Au      4.580214      7.353703      7.334340
  Au      6.392587      6.194403      5.446860
  Au      5.673498      8.960217      5.383136
  Au      5.543272      9.948025      8.061252
  Au      6.613765      5.236378      8.085703
  Au      4.303755      5.770591      9.501912
  Au      6.006551      7.900113      9.942481
  Fe      7.233225      7.934891      7.359530
15
Coordinates from ORCA-job pbe E -3165.065440027433
  Au      7.883204     10.616993      6.639754
  Au      9.863216      8.701225      7.117433
  Au      8.170122      9.554930      9.228361
  Au      8.507167      6.746241      9.479144
  Au      8.972469      6.030609      6.770416
  Au      8.481355      7.973430      4.797341
  Au      7.443905     10.378882      3.923047
  Au      4.579714      7.354064      7.333667
  Au      6.391816      6.194461      5.447201
  Au      5.673272      8.959851      5.382985
  Au      5.542894      9.947715      8.060417
  Au      6.615041      5.236128      8.082844
  Au      4.306320      5.771720      9.500673
  Au      6.007044      7.903059      9.941213
  Fe      7.233420      7.934539      7.360127
15
Coordinates from ORCA-job pbe E -3165.065441756908
  Au      7.882320     10.619084      6.640926
  Au      9.861667      8.702974      7.113971
  Au      8.171476      9.552892      9.228592
  Au      8.506644      6.744903      9.481274
  Au      8.973009      6.031194      6.772807
  Au      8.480715      7.971828      4.795960
  Au      7.445212     10.379291      3.923804
  Au      4.578795      7.354028      7.333452
  Au      6.391993      6.194714      5.446528
  Au      5.673309      8.960066      5.382138
  Au      5.543308      9.948545      8.059297
  Au      6.615412      5.234976      8.082704
  Au      4.306681      5.771331      9.501042
  Au      6.006924      7.903649      9.941733
  Fe      7.233493      7.934372      7.360396
