11
Coordinates from ORCA-job pbe E -2509.023075704591
  Au      8.256854      5.343458      7.414348
  Au      5.941382      7.807487      4.492242
  Au      8.312765      5.655866     10.049561
  Au      4.452765      5.832513      9.140006
  Au      6.078238      6.961365     11.201954
  Au      6.580988      9.237839      9.627636
  Au      5.292139      6.124896      6.617797
  Au      6.420613      8.861671      6.997509
  Au      7.456474      5.681431      4.796326
  Au      9.257944      3.903181      5.376078
  Mn      6.693456      6.943019      8.644003
11
Coordinates from ORCA-job pbe E -2509.025229537481
  Au      8.296529      5.309931      7.434567
  Au      5.914019      7.820644      4.481829
  Au      8.316115      5.647678     10.108692
  Au      4.438639      5.827726      9.126721
  Au      6.070524      6.987241     11.241922
  Au      6.546413      9.273183      9.644302
  Au      5.290606      6.122189      6.617498
  Au      6.432245      8.877768      6.979499
  Au      7.453849      5.690680      4.763364
  Au      9.285897      3.850525      5.295286
  Mn      6.698784      6.945162      8.663780
11
Coordinates from ORCA-job pbe E -2509.027014830721
  Au      8.339073      5.261257      7.441100
  Au      5.922339      7.810628      4.492341
  Au      8.338020      5.620229     10.129796
  Au      4.429861      5.810031      9.101557
  Au      6.088453      7.005288     11.267119
  Au      6.495570      9.309092      9.632622
  Au      5.301879      6.122791      6.598921
  Au      6.431390      8.894251      6.957352
  Au      7.471765      5.700772      4.791701
  Au      9.215837      3.878989      5.275479
  Mn      6.709432      6.939398      8.669472
11
Coordinates from ORCA-job pbe E -2509.028771570940
  Au      8.366842      5.215038      7.476674
  Au      5.910455      7.825068      4.504718
  Au      8.347830      5.587284     10.102347
  Au      4.430101      5.801677      9.084184
  Au      6.127839      7.022050     11.253076
  Au      6.448217      9.319894      9.598420
  Au      5.300905      6.134516      6.585560
  Au      6.420412      8.915308      6.967081
  Au      7.468713      5.736602      4.824605
  Au      9.206425      3.863506      5.295788
  Mn      6.715880      6.931784      8.665008
11
Coordinates from ORCA-job pbe E -2509.029615312874
  Au      8.414968      5.147569      7.513478
  Au      5.893170      7.869413      4.491968
  Au      8.346416      5.555776     10.101013
  Au      4.447007      5.793180      9.057707
  Au      6.196611      7.052156     11.216600
  Au      6.363406      9.317032      9.577379
  Au      5.284246      6.148740      6.594793
  Au      6.395877      8.948548      6.976353
  Au      7.495045      5.764820      4.860865
  Au      9.175319      3.832082      5.308083
  Mn      6.731554      6.923409      8.659223
11
Coordinates from ORCA-job pbe E -2509.030256624410
  Au      8.440976      5.103505      7.527672
  Au      5.914046      7.863308      4.510492
  Au      8.344421      5.551183     10.125055
  Au      4.464817      5.786360      9.059330
  Au      6.228475      7.073953     11.195263
  Au      6.303686      9.311594      9.574759
  Au      5.293958      6.166622      6.578608
  Au      6.372051      8.950960      6.959637
  Au      7.500290      5.815560      4.884036
  Au      9.133291      3.809158      5.288653
  Mn      6.747608      6.920523      8.653954
11
Coordinates from ORCA-job pbe E -2509.030739417335
  Au      8.442487      5.100038      7.530383
  Au      5.928352      7.865708      4.480187
  Au      8.355820      5.558931     10.123571
  Au      4.473814      5.785597      9.076040
  Au      6.222583      7.061986     11.215317
  Au      6.295171      9.312598      9.581992
  Au      5.292987      6.181367      6.570427
  Au      6.344889      8.954621      6.962111
  Au      7.520651      5.815144      4.879932
  Au      9.113368      3.792327      5.285026
  Mn      6.753495      6.924408      8.652475
11
Coordinates from ORCA-job pbe E -2509.031226136328
  Au      8.453975      5.086589      7.536729
  Au      5.931508      7.865623      4.477169
  Au      8.356230      5.556836     10.130366
  Au      4.489259      5.791620      9.054133
  Au      6.224846      7.060105     11.212590
  Au      6.279234      9.308585      9.577485
  Au      5.290806      6.193692      6.582030
  Au      6.334051      8.954927      6.955912
  Au      7.510896      5.820032      4.912027
  Au      9.105361      3.789320      5.272713
  Mn      6.767452      6.925397      8.646305
11
Coordinates from ORCA-job pbe E -2509.032327492514
  Au      8.470186      5.043706      7.552241
  Au      5.951809      7.878360      4.441261
  Au      8.358845      5.552373     10.138512
  Au      4.520089      5.807433      9.063098
  Au      6.232497      7.053652     11.208693
  Au      6.246942      9.289133      9.565115
  Au      5.276738      6.235589      6.582665
  Au      6.285381      8.952981      6.943272
  Au      7.508102      5.830591      4.985576
  Au      9.094968      3.784305      5.248815
  Mn      6.798062      6.924603      8.628213
11
Coordinates from ORCA-job pbe E -2509.033372843731
  Au      8.482332      5.009239      7.564068
  Au      5.960403      7.876259      4.404171
  Au      8.355040      5.540371     10.144541
  Au      4.546617      5.837677      9.091040
  Au      6.223359      7.038172     11.205857
  Au      6.237342      9.264609      9.549806
  Au      5.242523      6.281135      6.584840
  Au      6.252820      8.941310      6.925287
  Au      7.505688      5.840218      5.048190
  Au      9.105959      3.801893      5.232852
  Mn      6.831534      6.921842      8.606808
11
Coordinates from ORCA-job pbe E -2509.034440910502
  Au      8.506428      4.979918      7.579303
  Au      5.950452      7.866743      4.374433
  Au      8.343574      5.517569     10.155330
  Au      4.569740      5.880839      9.126012
  Au      6.202298      7.016754     11.198820
  Au      6.234985      9.239404      9.524271
  Au      5.191821      6.320025      6.589345
  Au      6.245746      8.929191      6.903174
  Au      7.497423      5.853064      5.106465
  Au      9.129171      3.834222      5.218274
  Mn      6.871982      6.914998      8.582034
11
Coordinates from ORCA-job pbe E -2509.035498831411
  Au      8.541888      4.958847      7.595479
  Au      5.926480      7.850259      4.357015
  Au      8.322438      5.480788     10.165498
  Au      4.580713      5.929841      9.154744
  Au      6.185649      6.999729     11.192920
  Au      6.236074      9.215582      9.494998
  Au      5.127261      6.343647      6.598064
  Au      6.267212      8.919229      6.873268
  Au      7.481965      5.869579      5.159866
  Au      9.161238      3.882777      5.210555
  Mn      6.912701      6.902447      8.555054
11
Coordinates from ORCA-job pbe E -2509.036509399286
  Au      8.583709      4.936118      7.613111
  Au      5.898855      7.830659      4.352912
  Au      8.289165      5.432169     10.177775
  Au      4.575254      5.974074      9.165535
  Au      6.196901      7.003324     11.195891
  Au      6.228902      9.193795      9.459276
  Au      5.059932      6.356183      6.608494
  Au      6.303886      8.909416      6.842453
  Au      7.463865      5.891367      5.213012
  Au      9.196494      3.942539      5.200368
  Mn      6.946657      6.883081      8.528635
11
Coordinates from ORCA-job pbe E -2509.037375459382
  Au      8.618797      4.916617      7.628594
  Au      5.864572      7.806664      4.350227
  Au      8.245083      5.384975     10.190207
  Au      4.571367      6.021388      9.175723
  Au      6.208598      7.013149     11.194461
  Au      6.233438      9.166210      9.429295
  Au      4.999987      6.370029      6.618997
  Au      6.344460      8.889861      6.808849
  Au      7.443408      5.909191      5.274013
  Au      9.238911      4.014626      5.186146
  Mn      6.974997      6.860016      8.500947
11
Coordinates from ORCA-job pbe E -2509.038280312368
  Au      8.648982      4.891883      7.646655
  Au      5.835875      7.775210      4.339854
  Au      8.195230      5.337853     10.201839
  Au      4.565710      6.066130      9.186240
  Au      6.232988      7.028807     11.198103
  Au      6.241035      9.140770      9.398630
  Au      4.944637      6.383473      6.623928
  Au      6.382088      8.868025      6.781088
  Au      7.422514      5.930096      5.339194
  Au      9.280328      4.097878      5.168115
  Mn      6.994231      6.832601      8.473816
11
Coordinates from ORCA-job pbe E -2509.039323460694
  Au      8.674213      4.869041      7.663630
  Au      5.803937      7.746030      4.328617
  Au      8.142289      5.296399     10.210116
  Au      4.560818      6.109013      9.197246
  Au      6.255270      7.044396     11.201047
  Au      6.269294      9.116696      9.372568
  Au      4.893578      6.394342      6.624797
  Au      6.415609      8.836872      6.750554
  Au      7.402155      5.950591      5.410236
  Au      9.324150      4.189385      5.155278
  Mn      7.002306      6.799960      8.443373
11
Coordinates from ORCA-job pbe E -2509.040547433724
  Au      8.694580      4.850306      7.682330
  Au      5.777180      7.712575      4.306268
  Au      8.090616      5.269518     10.216516
  Au      4.554269      6.142535      9.207148
  Au      6.272958      7.058278     11.205825
  Au      6.334373      9.099883      9.356275
  Au      4.850671      6.399405      6.616815
  Au      6.435554      8.799036      6.729709
  Au      7.383181      5.972845      5.481502
  Au      9.363138      4.286886      5.143975
  Mn      6.987099      6.761459      8.411097
11
Coordinates from ORCA-job pbe E -2509.041651152464
  Au      8.717968      4.828389      7.699171
  Au      5.747027      7.683507      4.289887
  Au      8.054946      5.247905     10.218599
  Au      4.552491      6.176142      9.217070
  Au      6.259901      7.068288     11.207110
  Au      6.416944      9.081047      9.332286
  Au      4.803677      6.408280      6.617212
  Au      6.453214      8.757909      6.707595
  Au      7.364789      5.994548      5.551788
  Au      9.399840      4.386730      5.139935
  Mn      6.972821      6.719979      8.376808
11
Coordinates from ORCA-job pbe E -2509.042364855398
  Au      8.739586      4.822394      7.713498
  Au      5.715579      7.653504      4.269876
  Au      8.030797      5.256625     10.221203
  Au      4.534063      6.193219      9.224025
  Au      6.227283      7.063145     11.218024
  Au      6.550610      9.072024      9.314865
  Au      4.760203      6.399015      6.612235
  Au      6.468745      8.726806      6.700825
  Au      7.355529      6.012929      5.594913
  Au      9.431436      4.473354      5.137930
  Mn      6.929786      6.679711      8.350066
11
Coordinates from ORCA-job pbe E -2509.042334126403
  Au      8.767858      4.788349      7.727568
  Au      5.695355      7.624966      4.271279
  Au      8.009165      5.227479     10.214484
  Au      4.528871      6.226379      9.234236
  Au      6.225527      7.078843     11.215644
  Au      6.572197      9.039295      9.285459
  Au      4.698767      6.422925      6.627015
  Au      6.504863      8.706179      6.666293
  Au      7.341178      6.032103      5.647177
  Au      9.460369      4.561419      5.145235
  Mn      6.939469      6.644788      8.323070
11
Coordinates from ORCA-job pbe E -2509.042623609171
  Au      8.767648      4.815041      7.730083
  Au      5.695470      7.640031      4.276135
  Au      8.040210      5.270760     10.200284
  Au      4.502898      6.185552      9.231493
  Au      6.193455      7.074996     11.220639
  Au      6.637533      9.050697      9.305357
  Au      4.720377      6.407465      6.613704
  Au      6.478617      8.721861      6.689103
  Au      7.367706      6.031352      5.612103
  Au      9.448486      4.505345      5.142657
  Mn      6.891220      6.649625      8.335900
11
Coordinates from ORCA-job pbe E -2509.042729459657
  Au      8.764717      4.826111      7.710966
  Au      5.686031      7.639931      4.287027
  Au      8.035795      5.284050     10.218309
  Au      4.497315      6.191254      9.231752
  Au      6.193419      7.056583     11.217808
  Au      6.613650      9.054159      9.302733
  Au      4.735683      6.397290      6.618085
  Au      6.501750      8.732008      6.695867
  Au      7.371817      6.028676      5.589329
  Au      9.444619      4.484302      5.138597
  Mn      6.898822      6.658360      8.346986
11
Coordinates from ORCA-job pbe E -2509.042904947812
  Au      8.775006      4.829592      7.717857
  Au      5.685004      7.634820      4.286520
  Au      8.039403      5.286233     10.208835
  Au      4.489817      6.190021      9.227558
  Au      6.197513      7.056776     11.215373
  Au      6.618320      9.043766      9.306697
  Au      4.729207      6.408275      6.620901
  Au      6.502077      8.730330      6.686787
  Au      7.373813      6.038768      5.602833
  Au      9.440883      4.483554      5.144031
  Mn      6.892576      6.650591      8.340067
11
Coordinates from ORCA-job pbe E -2509.043047043533
  Au      8.784123      4.822913      7.725018
  Au      5.687076      7.630697      4.292630
  Au      8.057515      5.300024     10.201188
  Au      4.472220      6.185355      9.233532
  Au      6.188823      7.059529     11.210544
  Au      6.624631      9.027549      9.294805
  Au      4.721293      6.424239      6.627465
  Au      6.510540      8.726160      6.680113
  Au      7.383506      6.057055      5.615086
  Au      9.435606      4.486523      5.140626
  Mn      6.878286      6.632681      8.336451
11
Coordinates from ORCA-job pbe E -2509.043184457292
  Au      8.795919      4.840455      7.723850
  Au      5.675898      7.620684      4.292600
  Au      8.073404      5.320461     10.200330
  Au      4.449316      6.184139      9.232729
  Au      6.175872      7.049488     11.207112
  Au      6.634308      9.011535      9.301052
  Au      4.722241      6.434000      6.634588
  Au      6.533302      8.725779      6.674118
  Au      7.394576      6.072117      5.614118
  Au      9.425029      4.473984      5.139693
  Mn      6.863753      6.620084      8.337270
11
Coordinates from ORCA-job pbe E -2509.043341255702
  Au      8.798590      4.849741      7.718139
  Au      5.672657      7.621147      4.292264
  Au      8.101487      5.346114     10.207100
  Au      4.420512      6.180397      9.235788
  Au      6.176307      7.037592     11.205586
  Au      6.619341      9.000464      9.295564
  Au      4.731249      6.445061      6.639568
  Au      6.554805      8.723090      6.671786
  Au      7.413526      6.094428      5.609205
  Au      9.408780      4.451854      5.137391
  Mn      6.846365      6.602839      8.345069
11
Coordinates from ORCA-job pbe E -2509.043428621716
  Au      8.795712      4.860851      7.715038
  Au      5.667038      7.616788      4.285204
  Au      8.123132      5.360001     10.217405
  Au      4.407929      6.189382      9.240027
  Au      6.164708      7.026812     11.204310
  Au      6.615048      8.991824      9.295255
  Au      4.732974      6.451411      6.642770
  Au      6.573278      8.713485      6.671237
  Au      7.423490      6.106517      5.601780
  Au      9.400618      4.446250      5.132120
  Mn      6.839691      6.589403      8.352314
11
Coordinates from ORCA-job pbe E -2509.043484725802
  Au      8.794071      4.866653      7.716201
  Au      5.662518      7.617825      4.279249
  Au      8.137142      5.364658     10.224345
  Au      4.400108      6.198281      9.237213
  Au      6.168843      7.021488     11.204061
  Au      6.614577      8.987993      9.293086
  Au      4.730151      6.453264      6.638110
  Au      6.578212      8.703469      6.673276
  Au      7.429361      6.117297      5.600575
  Au      9.396946      4.444959      5.135221
  Mn      6.831689      6.576838      8.356122
11
Coordinates from ORCA-job pbe E -2509.043525410810
  Au      8.792161      4.869797      7.718355
  Au      5.661631      7.618567      4.274596
  Au      8.148492      5.362015     10.230319
  Au      4.401215      6.211656      9.232934
  Au      6.174446      7.017785     11.202101
  Au      6.608270      8.986917      9.296189
  Au      4.725865      6.455061      6.630568
  Au      6.572317      8.696823      6.676487
  Au      7.432565      6.122239      5.596699
  Au      9.395245      4.442120      5.139032
  Mn      6.831410      6.569745      8.360180
11
Coordinates from ORCA-job pbe E -2509.043544004091
  Au      8.795949      4.873399      7.721168
  Au      5.659369      7.616488      4.275416
  Au      8.153299      5.361399     10.229940
  Au      4.397772      6.222129      9.228051
  Au      6.174269      7.015154     11.201457
  Au      6.619080      8.984266      9.295875
  Au      4.719463      6.453992      6.626040
  Au      6.566396      8.692272      6.678734
  Au      7.434443      6.126235      5.597856
  Au      9.396639      4.444311      5.142040
  Mn      6.826941      6.563081      8.360883
11
Coordinates from ORCA-job pbe E -2509.043555227398
  Au      8.800054      4.873464      7.721501
  Au      5.661129      7.614842      4.275901
  Au      8.154453      5.359259     10.229560
  Au      4.396491      6.230176      9.225660
  Au      6.176096      7.014174     11.200051
  Au      6.621012      8.983130      9.298360
  Au      4.716667      6.453354      6.623169
  Au      6.557424      8.693306      6.680306
  Au      7.435313      6.126298      5.598318
  Au      9.397360      4.443187      5.142715
  Mn      6.827619      6.561537      8.361919
11
Coordinates from ORCA-job pbe E -2509.043563512882
  Au      8.804982      4.875362      7.721235
  Au      5.661053      7.611858      4.276918
  Au      8.155683      5.360664     10.228697
  Au      4.390100      6.238146      9.224722
  Au      6.174205      7.012062     11.199198
  Au      6.629237      8.979638      9.298435
  Au      4.714052      6.452013      6.622644
  Au      6.553700      8.692525      6.680468
  Au      7.436782      6.127824      5.600755
  Au      9.398461      4.445092      5.141530
  Mn      6.825363      6.557542      8.362858
11
Coordinates from ORCA-job pbe E -2509.043568343071
  Au      8.808166      4.877112      7.720032
  Au      5.661466      7.609769      4.276319
  Au      8.157157      5.362507     10.228642
  Au      4.383924      6.243491      9.224964
  Au      6.172870      7.010448     11.198338
  Au      6.634428      8.977045      9.298477
  Au      4.713795      6.451219      6.622743
  Au      6.551882      8.691964      6.680881
  Au      7.437767      6.128537      5.602908
  Au      9.398784      4.446311      5.139708
  Mn      6.823380      6.554325      8.364448
11
Coordinates from ORCA-job pbe E -2509.043570975430
  Au      8.809149      4.878509      7.719344
  Au      5.661300      7.608850      4.275492
  Au      8.158385      5.363288     10.228952
  Au      4.379900      6.246133      9.225331
  Au      6.172257      7.009680     11.197760
  Au      6.636922      8.976025      9.298246
  Au      4.714270      6.450849      6.622894
  Au      6.552635      8.690771      6.680871
  Au      7.437543      6.128344      5.604258
  Au      9.399241      4.447983      5.138338
  Mn      6.822016      6.552293      8.365974
