15
E=  -1581.13905028;c=0;m=4
Au      7.003858058120340      7.754214549534100      9.456840667302121
Au      9.792428444479020      8.793973349634030      9.621339846691351
Au      9.402868544072129      6.044771263561070      8.997050594254571
Au      9.605878940463629     10.261457777418499      7.070389512006010
Au      7.607271115056710     10.523281036541119      9.242394874102089
Au      6.901105337838080     10.904120789769800      6.451544721608240
Au      5.138303785240250      9.748525625563500      8.465036753363140
Au      2.901322281372260      8.841906140457089      7.228809956693640
Au      6.863963061062060      5.286331870972680      8.054569715723920
Au      4.739935732926700      6.940897085251350      7.828559784536560
Au      8.009094560680889      8.548494230537001      5.327202796507830
Au      8.987149593959471      5.903490631624420      6.081265900475380
Au      5.167374387877320      8.891478174078291      5.594041587116480
Au      6.250982434097640      6.325413746717310      5.412803954344350
Mn      9.251460432753570      7.901164268339720      7.403288885274100
