15
Coordinates from ORCA-job pbe E -2945.826163006408
  Au     10.213432     10.244234      8.623989
  Au      8.579545     10.413547      6.243166
  Au     11.392977     10.085945      6.056735
  Au     11.846864      8.036041      7.944470
  Au      9.323506      6.117045      4.356295
  Au     10.890970      5.762629      6.680229
  Au     10.229550      8.757342      3.921041
  Au      7.534282      8.189526      4.806895
  Au      5.971045      9.458830      6.629447
  Au      4.882528      9.540705      9.140475
  Au      6.435224      7.360952      8.562847
  Au      7.557892     10.062309      9.064645
  Au      8.011996      6.025610      6.799934
  Au      9.215132      7.542127      8.886572
  Cr      9.766393      8.019816      6.315615
15
Coordinates from ORCA-job pbe E -2945.827924697006
  Au     10.188026     10.238220      8.623886
  Au      8.569027     10.408948      6.255823
  Au     11.382825     10.107890      6.064153
  Au     11.840913      8.039990      7.968443
  Au      9.299570      6.108639      4.353262
  Au     10.887367      5.748646      6.692407
  Au     10.220437      8.768670      3.909259
  Au      7.520586      8.199119      4.812559
  Au      6.011102      9.446049      6.625031
  Au      4.924597      9.530682      9.119288
  Au      6.471141      7.366543      8.540757
  Au      7.582384     10.048513      9.043896
  Au      8.000117      6.026952      6.812607
  Au      9.201543      7.551966      8.885377
  Cr      9.751700      8.025832      6.325606
15
Coordinates from ORCA-job pbe E -2945.828602896074
  Au     10.193626     10.233257      8.617689
  Au      8.561241     10.416196      6.264581
  Au     11.380418     10.127756      6.060582
  Au     11.844484      8.035444      7.987279
  Au      9.294597      6.105205      4.351078
  Au     10.895567      5.734370      6.696514
  Au     10.224422      8.774598      3.893691
  Au      7.523571      8.188548      4.784608
  Au      6.014014      9.443173      6.632461
  Au      4.907187      9.544668      9.138404
  Au      6.471644      7.374259      8.537038
  Au      7.594616     10.052435      9.045486
  Au      8.006446      6.000460      6.798681
  Au      9.194112      7.557911      8.894500
  Cr      9.745390      8.028378      6.329762
15
Coordinates from ORCA-job pbe E -2945.829117649035
  Au     10.221482     10.226206      8.603861
  Au      8.561619     10.429177      6.274077
  Au     11.378900     10.132174      6.049971
  Au     11.846979      8.025073      7.990034
  Au      9.293289      6.114081      4.361311
  Au     10.886705      5.733101      6.702604
  Au     10.214814      8.777558      3.894590
  Au      7.521529      8.192846      4.779119
  Au      6.022646      9.425193      6.638280
  Au      4.906080      9.533877      9.126862
  Au      6.474271      7.382800      8.517214
  Au      7.584415     10.048090      9.043619
  Au      8.006779      5.993589      6.802472
  Au      9.195409      7.566217      8.907601
  Cr      9.736420      8.036676      6.340738
15
Coordinates from ORCA-job pbe E -2945.829494131691
  Au     10.237358     10.214926      8.588274
  Au      8.560716     10.443932      6.280513
  Au     11.368964     10.130888      6.033962
  Au     11.841252      8.007884      7.988538
  Au      9.315207      6.122308      4.365310
  Au     10.872186      5.740525      6.710965
  Au     10.201264      8.780672      3.905305
  Au      7.518750      8.200052      4.773354
  Au      6.033851      9.410812      6.628870
  Au      4.897417      9.534045      9.129447
  Au      6.483231      7.377227      8.498476
  Au      7.594985     10.048661      9.042335
  Au      8.007173      5.985872      6.809101
  Au      9.196345      7.571198      8.922246
  Cr      9.722637      8.047655      6.355657
15
Coordinates from ORCA-job pbe E -2945.829736532686
  Au     10.232849     10.203853      8.577499
  Au      8.548518     10.456289      6.283512
  Au     11.354112     10.131480      6.016615
  Au     11.831135      7.988242      7.990365
  Au      9.348988      6.126876      4.362774
  Au     10.863475      5.749132      6.716927
  Au     10.193959      8.782880      3.915776
  Au      7.524298      8.193427      4.761704
  Au      6.035378      9.403530      6.639104
  Au      4.925369      9.541860      9.131917
  Au      6.480794      7.388007      8.490440
  Au      7.604536     10.048142      9.040154
  Au      8.013500      5.975262      6.799880
  Au      9.186638      7.570366      8.936374
  Cr      9.707785      8.057313      6.369314
15
Coordinates from ORCA-job pbe E -2945.830006267613
  Au     10.234410     10.206728      8.579923
  Au      8.546192     10.465597      6.277214
  Au     11.359313     10.134885      6.011975
  Au     11.837760      7.985266      7.992477
  Au      9.349042      6.124881      4.361192
  Au     10.861731      5.745618      6.716042
  Au     10.191539      8.781757      3.912827
  Au      7.525025      8.191017      4.766556
  Au      6.030608      9.403434      6.629713
  Au      4.928100      9.542199      9.131974
  Au      6.478261      7.377754      8.489360
  Au      7.604854     10.051831      9.044280
  Au      8.012683      5.979939      6.797644
  Au      9.187917      7.562900      8.944955
  Cr      9.703900      8.062854      6.376221
15
Coordinates from ORCA-job pbe E -2945.830241341611
  Au     10.235023     10.200475      8.572206
  Au      8.541128     10.473957      6.265196
  Au     11.357282     10.138974      6.016107
  Au     11.835866      7.989083      7.997864
  Au      9.353864      6.123734      4.359230
  Au     10.860146      5.743580      6.714974
  Au     10.189055      8.780176      3.911422
  Au      7.528918      8.180813      4.776599
  Au      6.024618      9.405695      6.620463
  Au      4.939963      9.546928      9.134612
  Au      6.474917      7.367392      8.489972
  Au      7.614614     10.053378      9.043724
  Au      8.012179      5.990255      6.787739
  Au      9.187676      7.548845      8.952558
  Cr      9.696086      8.073373      6.389686
15
Coordinates from ORCA-job pbe E -2945.830456833186
  Au     10.240505     10.194215      8.563844
  Au      8.534531     10.486413      6.263443
  Au     11.360571     10.135857      6.008760
  Au     11.839974      7.983052      7.993228
  Au      9.361883      6.125076      4.358981
  Au     10.852885      5.748257      6.719162
  Au     10.182239      8.781583      3.917811
  Au      7.531475      8.182799      4.771526
  Au      6.025335      9.401568      6.617777
  Au      4.944643      9.545707      9.132561
  Au      6.475324      7.365450      8.483823
  Au      7.618284     10.052182      9.041902
  Au      8.016572      5.985000      6.788600
  Au      9.184594      7.544480      8.965392
  Cr      9.682520      8.085017      6.405546
15
Coordinates from ORCA-job pbe E -2945.830774590955
  Au     10.242634     10.182387      8.549948
  Au      8.527789     10.502239      6.255334
  Au     11.373693     10.123405      6.007259
  Au     11.849938      7.985358      7.978356
  Au      9.361439      6.127535      4.362093
  Au     10.845534      5.760405      6.721982
  Au     10.176613      8.781818      3.931776
  Au      7.534741      8.186731      4.766224
  Au      6.024141      9.399754      6.613248
  Au      4.949258      9.540609      9.126225
  Au      6.475024      7.362086      8.479030
  Au      7.625279     10.045805      9.033663
  Au      8.023049      5.979036      6.791505
  Au      9.183762      7.533302      8.981108
  Cr      9.658441      8.106187      6.434602
15
Coordinates from ORCA-job pbe E -2945.830945515394
  Au     10.238157     10.177525      8.545550
  Au      8.527104     10.507153      6.245303
  Au     11.389537     10.111055      6.013467
  Au     11.860547      7.995452      7.964169
  Au      9.355978      6.126170      4.361494
  Au     10.847165      5.772447      6.718037
  Au     10.180482      8.778528      3.943285
  Au      7.531808      8.189749      4.763603
  Au      6.022214      9.403461      6.613451
  Au      4.947436      9.538125      9.123731
  Au      6.474723      7.362928      8.481489
  Au      7.623851     10.038137      9.025821
  Au      8.022246      5.975283      6.796010
  Au      9.186765      7.522713      8.985460
  Cr      9.643324      8.117932      6.451484
15
Coordinates from ORCA-job pbe E -2945.831049660364
  Au     10.229802     10.177018      8.547579
  Au      8.531106     10.508054      6.235291
  Au     11.403588     10.101706      6.020543
  Au     11.870198      8.005648      7.953173
  Au      9.340721      6.128002      4.367108
  Au     10.849763      5.784890      6.708891
  Au     10.186023      8.771435      3.954527
  Au      7.529114      8.190294      4.763138
  Au      6.025058      9.407374      6.613052
  Au      4.940979      9.536376      9.121995
  Au      6.478529      7.364838      8.483867
  Au      7.619000     10.030004      9.018132
  Au      8.021744      5.973353      6.797821
  Au      9.193738      7.513613      8.985708
  Cr      9.631973      8.124052      6.461527
15
Coordinates from ORCA-job pbe E -2945.831120132278
  Au     10.224358     10.179238      8.551796
  Au      8.537437     10.507316      6.226778
  Au     11.408486     10.099942      6.027376
  Au     11.872821      8.012988      7.951659
  Au      9.335981      6.123175      4.362260
  Au     10.854707      5.793066      6.700568
  Au     10.193160      8.765362      3.961011
  Au      7.522984      8.189864      4.760715
  Au      6.026964      9.412158      6.616230
  Au      4.935237      9.538176      9.124526
  Au      6.482091      7.368946      8.488034
  Au      7.613340     10.025538      9.014698
  Au      8.016542      5.970146      6.799958
  Au      9.201577      7.507206      8.983781
  Cr      9.625650      8.123537      6.462962
15
Coordinates from ORCA-job pbe E -2945.831192315102
  Au     10.219325     10.182763      8.557796
  Au      8.544756     10.508849      6.219502
  Au     11.405064     10.103706      6.031336
  Au     11.870034      8.015100      7.956448
  Au      9.328139      6.120156      4.360553
  Au     10.857040      5.800127      6.690864
  Au     10.197391      8.757794      3.966907
  Au      7.519429      8.187355      4.759211
  Au      6.034482      9.416099      6.617274
  Au      4.931433      9.539100      9.124639
  Au      6.490138      7.372824      8.490157
  Au      7.609842     10.023004      9.012567
  Au      8.014426      5.967303      6.798725
  Au      9.211164      7.502000      8.984430
  Cr      9.618672      8.120479      6.461944
15
Coordinates from ORCA-job pbe E -2945.831241608507
  Au     10.217589     10.186179      8.562218
  Au      8.550384     10.514198      6.213406
  Au     11.396169     10.108407      6.034493
  Au     11.862158      8.014983      7.963570
  Au      9.323061      6.115165      4.355846
  Au     10.857343      5.804943      6.683217
  Au     10.199538      8.751053      3.971174
  Au      7.518261      8.185154      4.756521
  Au      6.042867      9.420655      6.618147
  Au      4.930710      9.536970      9.122005
  Au      6.500419      7.375938      8.492068
  Au      7.609775     10.023089      9.012542
  Au      8.013913      5.964864      6.797498
  Au      9.219155      7.497724      8.988553
  Cr      9.609995      8.117336      6.461095
15
Coordinates from ORCA-job pbe E -2945.831261863276
  Au     10.218181     10.187879      8.564165
  Au      8.551441     10.519522      6.211367
  Au     11.390913     10.109004      6.035604
  Au     11.857574      8.014215      7.965111
  Au      9.319908      6.111840      4.353023
  Au     10.856903      5.807141      6.679358
  Au     10.199448      8.747882      3.973430
  Au      7.518479      8.185579      4.755500
  Au      6.048733      9.423572      6.617499
  Au      4.930811      9.533102      9.116826
  Au      6.505907      7.377687      8.493137
  Au      7.611230     10.024502      9.013220
  Au      8.016343      5.962209      6.797242
  Au      9.222640      7.495612      8.994020
  Cr      9.602825      8.116912      6.462854
15
Coordinates from ORCA-job pbe E -2945.831272538987
  Au     10.219360     10.189789      8.564959
  Au      8.551592     10.524843      6.211030
  Au     11.388606     10.106853      6.035796
  Au     11.854025      8.013709      7.964614
  Au      9.316791      6.110225      4.351315
  Au     10.856110      5.807885      6.677306
  Au     10.199988      8.745074      3.974269
  Au      7.520862      8.187116      4.752112
  Au      6.051314      9.425610      6.617636
  Au      4.930899      9.527339      9.112687
  Au      6.511307      7.377547      8.493247
  Au      7.612681     10.026272      9.014768
  Au      8.018061      5.961090      6.799095
  Au      9.223172      7.495806      8.998517
  Cr      9.596567      8.117501      6.465003
15
Coordinates from ORCA-job pbe E -2945.831279386113
  Au     10.220301     10.190764      8.565932
  Au      8.550899     10.526164      6.213138
  Au     11.387777     10.104740      6.036014
  Au     11.853045      8.013728      7.962460
  Au      9.315101      6.109252      4.351105
  Au     10.857093      5.807508      6.675356
  Au     10.200586      8.744123      3.973759
  Au      7.521025      8.189920      4.751376
  Au      6.053000      9.426374      6.616505
  Au      4.930336      9.525206      9.109860
  Au      6.511532      7.377858      8.493430
  Au      7.612813     10.028238      9.016145
  Au      8.020961      5.958086      6.800511
  Au      9.223180      7.497222      9.000744
  Cr      9.593686      8.117474      6.466019
15
Coordinates from ORCA-job pbe E -2945.831287016782
  Au     10.220377     10.192399      8.567318
  Au      8.551061     10.526000      6.216376
  Au     11.387781     10.102340      6.036065
  Au     11.852152      8.013874      7.960524
  Au      9.312459      6.109420      4.351759
  Au     10.858988      5.806782      6.673000
  Au     10.202701      8.742323      3.972496
  Au      7.521914      8.193268      4.749218
  Au      6.052965      9.426152      6.616046
  Au      4.929766      9.523666      9.109075
  Au      6.511704      7.377376      8.492712
  Au      7.611904     10.030239      9.017941
  Au      8.023011      5.955688      6.803243
  Au      9.222455      7.500467      9.000916
  Cr      9.592098      8.116664      6.465666
15
Coordinates from ORCA-job pbe E -2945.831297872260
  Au     10.219649     10.195875      8.570769
  Au      8.552076     10.524345      6.223282
  Au     11.386789     10.098861      6.036508
  Au     11.849629      8.014220      7.958306
  Au      9.306135      6.109584      4.353261
  Au     10.863947      5.805988      6.666322
  Au     10.208568      8.737168      3.970082
  Au      7.523742      8.200335      4.744549
  Au      6.052497      9.424838      6.615391
  Au      4.929251      9.522530      9.109411
  Au      6.511867      7.376479      8.490466
  Au      7.609251     10.034173      9.021598
  Au      8.027283      5.950927      6.809173
  Au      9.221077      7.507643      8.999879
  Cr      9.589575      8.113693      6.463357
15
Coordinates from ORCA-job pbe E -2945.831302111919
  Au     10.219176     10.197235      8.572410
  Au      8.552453     10.523573      6.226438
  Au     11.385541     10.098333      6.036849
  Au     11.848148      8.014189      7.958390
  Au      9.301939      6.109162      4.353541
  Au     10.867087      5.806724      6.661703
  Au     10.212340      8.733438      3.969677
  Au      7.524887      8.203957      4.742380
  Au      6.052078      9.423651      6.615135
  Au      4.929511      9.522918      9.110093
  Au      6.511629      7.376196      8.488879
  Au      7.608085     10.035827      9.023052
  Au      8.029729      5.948775      6.812411
  Au      9.220400      7.510819      8.999511
  Cr      9.588333      8.111862      6.461886
15
Coordinates from ORCA-job pbe E -2945.831307845580
  Au     10.218878     10.198294      8.574107
  Au      8.552178     10.523111      6.230429
  Au     11.383518     10.098534      6.037449
  Au     11.846255      8.014178      7.959370
  Au      9.294556      6.107650      4.353609
  Au     10.872009      5.809229      6.653686
  Au     10.218731      8.726909      3.970221
  Au      7.526830      8.209643      4.739466
  Au      6.050962      9.421702      6.614638
  Au      4.930231      9.523894      9.111155
  Au      6.510808      7.375789      8.486459
  Au      7.607020     10.037514      9.024412
  Au      8.033918      5.946077      6.817476
  Au      9.218955      7.514589      8.999742
  Cr      9.586488      8.109547      6.460132
15
Coordinates from ORCA-job pbe E -2945.831313770757
  Au     10.219206     10.198510      8.575034
  Au      8.550851     10.523539      6.234380
  Au     11.381497     10.099376      6.037949
  Au     11.844890      8.013953      7.960652
  Au      9.285137      6.105546      4.353370
  Au     10.877624      5.813118      6.644114
  Au     10.226191      8.718905      3.971787
  Au      7.529356      8.216432      4.736699
  Au      6.049251      9.419702      6.613800
  Au      4.930873      9.524615      9.111574
  Au      6.509225      7.375196      8.484151
  Au      7.606605     10.038528      9.024943
  Au      8.038984      5.943462      6.823646
  Au      9.216958      7.517893      9.001145
  Cr      9.584688      8.107882      6.459109
15
Coordinates from ORCA-job pbe E -2945.831320479929
  Au     10.220283     10.198052      8.575289
  Au      8.548397     10.525181      6.238772
  Au     11.379391     10.100592      6.038161
  Au     11.843791      8.013434      7.962121
  Au      9.272708      6.102558      4.353311
  Au     10.884074      5.818350      6.631929
  Au     10.235625      8.708568      3.974175
  Au      7.532691      8.225551      4.733553
  Au      6.046775      9.417947      6.612492
  Au      4.931063      9.524359      9.111059
  Au      6.507156      7.374215      8.482220
  Au      7.606640     10.038765      9.024656
  Au      8.045633      5.940688      6.831677
  Au      9.214202      7.521315      9.003968
  Cr      9.582907      8.107083      6.458969
15
Coordinates from ORCA-job pbe E -2945.831326493428
  Au     10.221597     10.197557      8.575147
  Au      8.545803     10.527569      6.242741
  Au     11.377497     10.101648      6.037877
  Au     11.843003      8.012431      7.963023
  Au      9.260413      6.100049      4.353415
  Au     10.889734      5.822984      6.620321
  Au     10.244372      8.698346      3.976275
  Au      7.536240      8.234813      4.730823
  Au      6.044651      9.417186      6.611083
  Au      4.930243      9.522809      9.109340
  Au      6.505387      7.373130      8.481503
  Au      7.606686     10.038232      9.023682
  Au      8.052045      5.938185      6.839785
  Au      9.211887      7.524236      9.007474
  Cr      9.581778      8.107483      6.459865
15
Coordinates from ORCA-job pbe E -2945.831332312286
  Au     10.222676     10.197730      8.575393
  Au      8.543657     10.530466      6.246590
  Au     11.375350     10.102252      6.037125
  Au     11.841669      8.011069      7.963507
  Au      9.247997      6.097626      4.354032
  Au     10.894695      5.826653      6.608503
  Au     10.253247      8.687690      3.977604
  Au      7.540020      8.244810      4.727915
  Au      6.043044      9.417237      6.609829
  Au      4.928357      9.520009      9.106983
  Au      6.504563      7.372066      8.481734
  Au      7.606156     10.037254      9.022599
  Au      8.058637      5.935811      6.848058
  Au      9.210176      7.527295      9.011156
  Cr      9.581092      8.108690      6.461325
15
Coordinates from ORCA-job pbe E -2945.831337541676
  Au     10.223029     10.199140      8.576661
  Au      8.542391     10.533136      6.250471
  Au     11.372494     10.102429      6.036301
  Au     11.839397      8.009457      7.963553
  Au      9.235859      6.095789      4.354548
  Au     10.899399      5.829180      6.596707
  Au     10.261870      8.676620      3.977971
  Au      7.544172      8.254845      4.724895
  Au      6.042489      9.417572      6.608927
  Au      4.925694      9.516921      9.104495
  Au      6.504640      7.371302      8.482400
  Au      7.604721     10.036466      9.021929
  Au      8.065048      5.933246      6.856287
  Au      9.209454      7.530533      9.014408
  Cr      9.580679      8.110021      6.462798
15
Coordinates from ORCA-job pbe E -2945.831340924206
  Au     10.222542     10.201363      8.578776
  Au      8.542296     10.534791      6.253355
  Au     11.369656     10.102152      6.035679
  Au     11.836534      8.008362      7.963534
  Au      9.227114      6.094266      4.355124
  Au     10.902601      5.830309      6.587602
  Au     10.268652      8.667943      3.977536
  Au      7.547395      8.262485      4.722164
  Au      6.042734      9.417480      6.608734
  Au      4.923546      9.514791      9.103212
  Au      6.505592      7.371034      8.482692
  Au      7.602920     10.036298      9.022260
  Au      8.069874      5.931321      6.862062
  Au      9.209495      7.533222      9.016071
  Cr      9.580385      8.110841      6.463553
15
Coordinates from ORCA-job pbe E -2945.831342209794
  Au     10.221843     10.202972      8.580339
  Au      8.542639     10.534900      6.254388
  Au     11.368035     10.102008      6.035668
  Au     11.834850      8.008103      7.963459
  Au      9.224248      6.093926      4.354954
  Au     10.903809      5.830389      6.584368
  Au     10.271005      8.664520      3.977042
  Au      7.548820      8.264878      4.720997
  Au      6.043457      9.416806      6.608954
  Au      4.922993      9.514754      9.103219
  Au      6.506149      7.371197      8.482437
  Au      7.601929     10.036758      9.023078
  Au      8.071383      5.930460      6.863820
  Au      9.209865      7.534070      9.016068
  Cr      9.580311      8.110915      6.463563
