13
Coordinates from ORCA-job pbe E -2780.660330189944
  Au      7.365952      9.261021     10.815645
  Au      9.406430      7.486882      9.940859
  Au      6.738407      6.578039     10.337351
  Au     10.112764      7.661753      7.207788
  Au      7.917265      5.967028      7.877915
  Au      5.174183      6.514732      8.041777
  Au      6.311227     10.272860      8.209548
  Au      9.019863      9.961900      8.478153
  Au      8.294089      6.974865      5.182872
  Au      4.752870      8.611076     10.046814
  Au      3.966534      8.983705      7.388798
  Au      5.725681      7.880375      5.533126
  Mn      7.642306      8.654584      6.887479
13
Coordinates from ORCA-job pbe E -2780.666904295062
  Au      7.362814      9.251754     10.813485
  Au      9.397973      7.504070      9.937051
  Au      6.748790      6.599471     10.309653
  Au     10.120843      7.636357      7.225020
  Au      7.901054      5.994990      7.867005
  Au      5.196546      6.529069      8.035247
  Au      6.301613     10.276440      8.238213
  Au      9.016809      9.972600      8.512535
  Au      8.310549      6.941149      5.155327
  Au      4.769058      8.616754     10.043802
  Au      3.969217      8.975388      7.399360
  Au      5.693404      7.866371      5.520159
  Mn      7.638902      8.644404      6.891268
13
Coordinates from ORCA-job pbe E -2780.671570075115
  Au      7.364027      9.252311     10.829789
  Au      9.404636      7.522825      9.938405
  Au      6.759660      6.614011     10.291769
  Au     10.129602      7.610451      7.233686
  Au      7.893127      6.018291      7.843902
  Au      5.215087      6.541235      8.017057
  Au      6.293754     10.287576      8.275062
  Au      9.012003      9.988564      8.554790
  Au      8.315269      6.901153      5.129160
  Au      4.772878      8.630035     10.048041
  Au      3.968956      8.970124      7.400303
  Au      5.663937      7.842774      5.491927
  Mn      7.634634      8.629469      6.894234
13
Coordinates from ORCA-job pbe E -2780.674613950788
  Au      7.364842      9.249350     10.842100
  Au      9.407843      7.543158      9.935673
  Au      6.770650      6.630326     10.268742
  Au     10.125012      7.589643      7.242032
  Au      7.886908      6.038612      7.821723
  Au      5.239376      6.557420      7.997147
  Au      6.292111     10.292595      8.311095
  Au      8.995122      9.997228      8.591392
  Au      8.303840      6.872919      5.121117
  Au      4.783066      8.644640     10.045637
  Au      3.986244      8.963162      7.398595
  Au      5.646360      7.816181      5.471370
  Mn      7.626199      8.613583      6.901502
13
Coordinates from ORCA-job pbe E -2780.676708502334
  Au      7.367411      9.249504     10.870588
  Au      9.423631      7.562646      9.940668
  Au      6.779204      6.640533     10.255401
  Au     10.128729      7.571780      7.241878
  Au      7.885184      6.042378      7.802763
  Au      5.257042      6.570293      7.975427
  Au      6.291116     10.301715      8.347044
  Au      8.978054     10.009393      8.623316
  Au      8.290536      6.851088      5.104215
  Au      4.781874      8.665506     10.050571
  Au      3.999253      8.961611      7.387830
  Au      5.628995      7.785507      5.442058
  Mn      7.616544      8.596864      6.906366
13
Coordinates from ORCA-job pbe E -2780.678216409140
  Au      7.369505      9.240933     10.894376
  Au      9.435540      7.583164      9.938564
  Au      6.788469      6.653857     10.235354
  Au     10.120189      7.557842      7.245731
  Au      7.888516      6.039055      7.791701
  Au      5.277039      6.588168      7.957188
  Au      6.289739     10.305810      8.378262
  Au      8.957178     10.015276      8.645263
  Au      8.271595      6.840328      5.100211
  Au      4.784706      8.684806     10.049616
  Au      4.023574      8.961156      7.376296
  Au      5.618561      7.756746      5.420860
  Mn      7.602961      8.581677      6.914703
13
Coordinates from ORCA-job pbe E -2780.679427281586
  Au      7.372239      9.232175     10.927219
  Au      9.453758      7.601312      9.941405
  Au      6.795555      6.662074     10.221855
  Au     10.117435      7.548972      7.240493
  Au      7.893961      6.021900      7.786792
  Au      5.292020      6.601726      7.942245
  Au      6.287788     10.314171      8.402734
  Au      8.940662     10.022231      8.658850
  Au      8.258156      6.833615      5.094665
  Au      4.778449      8.704008     10.055555
  Au      4.039909      8.966704      7.360018
  Au      5.608790      7.731947      5.394825
  Mn      7.588849      8.567985      6.921470
13
Coordinates from ORCA-job pbe E -2780.680477045961
  Au      7.374150      9.220302     10.954105
  Au      9.469190      7.618879      9.939068
  Au      6.803434      6.671732     10.205180
  Au     10.106660      7.542955      7.238334
  Au      7.903760      5.998943      7.785568
  Au      5.306778      6.618485      7.929423
  Au      6.283863     10.319924      8.421370
  Au      8.925027     10.023374      8.664514
  Au      8.247542      6.832088      5.099942
  Au      4.774370      8.719603     10.058205
  Au      4.059725      8.972812      7.346294
  Au      5.601258      7.713606      5.374969
  Mn      7.571817      8.556116      6.931153
13
Coordinates from ORCA-job pbe E -2780.681405504981
  Au      7.375653      9.209356     10.979725
  Au      9.483676      7.633649      9.938566
  Au      6.811189      6.679343     10.189680
  Au     10.097225      7.542057      7.231980
  Au      7.910885      5.970338      7.788134
  Au      5.322249      6.632861      7.919044
  Au      6.280125     10.327563      8.433692
  Au      8.912027     10.021737      8.663935
  Au      8.243003      6.831427      5.109534
  Au      4.769203      8.731386     10.063264
  Au      4.073930      8.981625      7.333718
  Au      5.595093      7.701930      5.355075
  Mn      7.553314      8.545547      6.941778
13
Coordinates from ORCA-job pbe E -2780.682219910103
  Au      7.376389      9.200814     11.001343
  Au      9.497612      7.646635      9.938037
  Au      6.820482      6.687551     10.176511
  Au     10.084122      7.540896      7.230647
  Au      7.921580      5.940620      7.789347
  Au      5.335590      6.648885      7.906703
  Au      6.275081     10.334441      8.442849
  Au      8.902163     10.017121      8.658720
  Au      8.242322      6.831193      5.120493
  Au      4.765617      8.739829     10.066662
  Au      4.085386      8.988830      7.324499
  Au      5.588332      7.696426      5.338200
  Mn      7.532895      8.535576      6.954115
13
Coordinates from ORCA-job pbe E -2780.682937045238
  Au      7.376666      9.194180     11.018893
  Au      9.508428      7.657805      9.940654
  Au      6.829914      6.694617     10.161585
  Au     10.074114      7.543774      7.229108
  Au      7.926197      5.912533      7.793142
  Au      5.352670      6.662300      7.896029
  Au      6.271761     10.342296      8.449647
  Au      8.893171     10.011519      8.652313
  Au      8.240454      6.828907      5.130728
  Au      4.765256      8.744364     10.068775
  Au      4.092965      8.996711      7.318173
  Au      5.584238      7.694591      5.321400
  Mn      7.511739      8.525219      6.967677
13
Coordinates from ORCA-job pbe E -2780.683589652849
  Au      7.376890      9.190596     11.033957
  Au      9.519750      7.668339      9.945952
  Au      6.841225      6.702265     10.151133
  Au     10.062482      7.544412      7.233217
  Au      7.935076      5.886676      7.792530
  Au      5.366086      6.675952      7.881967
  Au      6.268376     10.350635      8.455291
  Au      8.887690     10.005439      8.645082
  Au      8.238551      6.824980      5.138081
  Au      4.765844      8.746358     10.069424
  Au      4.096735      9.001898      7.313377
  Au      5.578790      7.697044      5.306095
  Mn      7.490078      8.514225      6.982019
13
Coordinates from ORCA-job pbe E -2780.684186396589
  Au      7.376366      9.189502     11.044371
  Au      9.529139      7.677627      9.953939
  Au      6.851903      6.708115     10.138584
  Au     10.052711      7.546988      7.238033
  Au      7.939632      5.863747      7.792705
  Au      5.380923      6.686175      7.870101
  Au      6.266520     10.359336      8.459622
  Au      8.883425     10.000163      8.638162
  Au      8.234441      6.820805      5.144064
  Au      4.769463      8.745983     10.067031
  Au      4.098915      9.006677      7.311547
  Au      5.575322      7.701787      5.292226
  Mn      7.468812      8.501913      6.997739
13
Coordinates from ORCA-job pbe E -2780.684736314358
  Au      7.376027      9.189977     11.050287
  Au      9.537715      7.686990      9.964039
  Au      6.863403      6.713745     10.129128
  Au     10.042530      7.548861      7.244898
  Au      7.944007      5.842559      7.790581
  Au      5.391597      6.692872      7.858495
  Au      6.266346     10.368938      8.461914
  Au      8.881742      9.995184      8.631575
  Au      8.230746      6.818517      5.148317
  Au      4.774045      8.743884     10.063384
  Au      4.098612      9.009655      7.310796
  Au      5.572228      7.709324      5.280128
  Mn      7.448573      8.488313      7.014582
13
Coordinates from ORCA-job pbe E -2780.685255801034
  Au      7.375070      9.193001     11.051635
  Au      9.546155      7.695279      9.974472
  Au      6.873485      6.717360     10.119264
  Au     10.032444      7.550062      7.253055
  Au      7.945207      5.822765      7.787558
  Au      5.398639      6.694912      7.849509
  Au      6.267412     10.378947      8.462374
  Au      8.882317      9.992202      8.624416
  Au      8.228423      6.821416      5.151310
  Au      4.779507      8.741440     10.057330
  Au      4.098905      9.010650      7.312378
  Au      5.570225      7.717460      5.271628
  Mn      7.429785      8.473324      7.033197
13
Coordinates from ORCA-job pbe E -2780.685774835606
  Au      7.374509      9.196160     11.048122
  Au      9.553090      7.704109      9.984746
  Au      6.883317      6.720712     10.110834
  Au     10.022208      7.550552      7.261446
  Au      7.943621      5.803947      7.782717
  Au      5.400139      6.691028      7.842932
  Au      6.270816     10.390028      8.460868
  Au      8.884370      9.990442      8.617715
  Au      8.228981      6.830056      5.153855
  Au      4.785539      8.739103     10.051006
  Au      4.098996      9.010809      7.314814
  Au      5.569352      7.725156      5.265643
  Mn      7.412633      8.456719      7.053428
13
Coordinates from ORCA-job pbe E -2780.686322318828
  Au      7.373859      9.200763     11.040632
  Au      9.559706      7.712363      9.993914
  Au      6.891254      6.722727     10.101710
  Au     10.012227      7.549834      7.270227
  Au      7.938164      5.786289      7.775657
  Au      5.395531      6.681225      7.838694
  Au      6.275939     10.402102      8.458162
  Au      8.888311      9.991844      8.610615
  Au      8.233097      6.845650      5.156638
  Au      4.791855      8.737581     10.043329
  Au      4.101540      9.009076      7.318878
  Au      5.569072      7.730896      5.264029
  Mn      7.397016      8.438469      7.075639
13
Coordinates from ORCA-job pbe E -2780.686907399864
  Au      7.373700      9.205557     11.028989
  Au      9.564976      7.721028     10.000829
  Au      6.897365      6.724174     10.091627
  Au     10.002795      7.548068      7.278780
  Au      7.928630      5.769913      7.765714
  Au      5.383821      6.664004      7.836387
  Au      6.283374     10.415554      8.454961
  Au      8.893659      9.997185      8.603904
  Au      8.240354      6.867909      5.161634
  Au      4.798378      8.737047     10.035506
  Au      4.107014      9.006386      7.323936
  Au      5.569870      7.733614      5.266104
  Mn      7.383638      8.418379      7.099754
13
Coordinates from ORCA-job pbe E -2780.687499220374
  Au      7.374238      9.210545     11.016153
  Au      9.569116      7.730907     10.004369
  Au      6.901289      6.726140     10.079328
  Au      9.995511      7.545279      7.288204
  Au      7.915679      5.753265      7.752417
  Au      5.365985      6.640410      7.835038
  Au      6.291564     10.429920      8.453607
  Au      8.899389     10.006208      8.597469
  Au      8.248786      6.895608      5.167368
  Au      4.804527      8.738930     10.029112
  Au      4.117756      9.003273      7.328601
  Au      5.571681      7.731436      5.270834
  Mn      7.372049      8.396899      7.125626
13
Coordinates from ORCA-job pbe E -2780.688081237807
  Au      7.376072      9.215055     11.006499
  Au      9.572685      7.742196     10.007870
  Au      6.906171      6.730370     10.065453
  Au      9.987923      7.542220      7.298964
  Au      7.902889      5.734929      7.738020
  Au      5.349258      6.617288      7.833044
  Au      6.298309     10.444328      8.454686
  Au      8.903838     10.013601      8.588686
  Au      8.258460      6.922174      5.171908
  Au      4.810507      8.741879     10.025464
  Au      4.130476      9.001033      7.331692
  Au      5.573757      7.728437      5.273023
  Mn      7.357227      8.375307      7.152815
13
Coordinates from ORCA-job pbe E -2780.688693537153
  Au      7.378142      9.219694     10.999748
  Au      9.575214      7.755080     10.011624
  Au      6.910414      6.736772     10.048120
  Au      9.983870      7.539673      7.310608
  Au      7.890232      5.717041      7.720062
  Au      5.331246      6.592049      7.829743
  Au      6.303690     10.459332      8.459715
  Au      8.908008     10.022162      8.578835
  Au      8.262229      6.944090      5.175160
  Au      4.815249      8.745680     10.023787
  Au      4.148175      8.998408      7.333412
  Au      5.578543      7.723968      5.275234
  Mn      7.342560      8.354870      7.182078
13
Coordinates from ORCA-job pbe E -2780.689360592050
  Au      7.380709      9.224940     10.997782
  Au      9.576763      7.768560     10.017955
  Au      6.916847      6.746150     10.028876
  Au      9.979162      7.537102      7.322368
  Au      7.881345      5.698838      7.701690
  Au      5.317679      6.569445      7.825184
  Au      6.306253     10.474560      8.466705
  Au      8.910156     10.025183      8.567411
  Au      8.263833      6.959162      5.172935
  Au      4.818829      8.749967     10.024453
  Au      4.165914      8.996652      7.333444
  Au      5.584975      7.721097      5.276071
  Mn      7.325106      8.337164      7.213251
13
Coordinates from ORCA-job pbe E -2780.690036730473
  Au      7.381803      9.230479     10.997320
  Au      9.578732      7.780685     10.026595
  Au      6.924315      6.757092     10.007016
  Au      9.971816      7.534046      7.330136
  Au      7.875385      5.684041      7.682021
  Au      5.306436      6.547151      7.819987
  Au      6.307987     10.490021      8.474171
  Au      8.910723     10.026427      8.556022
  Au      8.261381      6.967389      5.172189
  Au      4.821543      8.753838     10.024223
  Au      4.184467      8.994035      7.333214
  Au      5.594575      7.720598      5.278430
  Mn      7.308409      8.323016      7.246801
13
Coordinates from ORCA-job pbe E -2780.690692903285
  Au      7.383405      9.236502     10.995381
  Au      9.583557      7.791400     10.033913
  Au      6.933355      6.768005      9.984838
  Au      9.958622      7.529857      7.337375
  Au      7.868973      5.668393      7.663620
  Au      5.295228      6.524626      7.815132
  Au      6.310413     10.505581      8.479190
  Au      8.910188     10.024858      8.544277
  Au      8.265735      6.978670      5.175052
  Au      4.824557      8.757923     10.023042
  Au      4.199249      8.990999      7.333592
  Au      5.603472      7.721425      5.281211
  Mn      7.290819      8.310578      7.281503
13
Coordinates from ORCA-job pbe E -2780.691313189214
  Au      7.383976      9.241847     10.992424
  Au      9.590724      7.802104     10.041672
  Au      6.941463      6.779738      9.961406
  Au      9.947706      7.526311      7.344707
  Au      7.860728      5.653257      7.643872
  Au      5.281602      6.499880      7.808709
  Au      6.313385     10.520701      8.485148
  Au      8.910233     10.026470      8.534024
  Au      8.264375      6.988469      5.180433
  Au      4.827869      8.762292     10.020448
  Au      4.215469      8.986226      7.334599
  Au      5.614071      7.721251      5.284168
  Mn      7.275970      8.300271      7.316514
13
Coordinates from ORCA-job pbe E -2780.691884432599
  Au      7.386786      9.247199     10.988486
  Au      9.599285      7.813115     10.049585
  Au      6.950169      6.791031      9.938259
  Au      9.934161      7.522196      7.352676
  Au      7.849026      5.634968      7.625559
  Au      5.267819      6.476112      7.801927
  Au      6.317299     10.536180      8.488142
  Au      8.911397     10.025822      8.523424
  Au      8.273803      7.006202      5.188509
  Au      4.832200      8.767327     10.018320
  Au      4.228023      8.980740      7.336492
  Au      5.619235      7.719244      5.286549
  Mn      7.258368      8.288683      7.350199
13
Coordinates from ORCA-job pbe E -2780.692382543914
  Au      7.388928      9.252040     10.985892
  Au      9.609205      7.825742     10.058532
  Au      6.958862      6.803083      9.912052
  Au      9.925650      7.517978      7.366703
  Au      7.838543      5.619757      7.604276
  Au      5.253990      6.450011      7.792143
  Au      6.320629     10.551411      8.493610
  Au      8.913144     10.029081      8.515254
  Au      8.268355      7.015118      5.193874
  Au      4.835636      8.772292     10.017363
  Au      4.242077      8.975001      7.337899
  Au      5.627621      7.716668      5.287025
  Mn      7.244932      8.280637      7.383501
13
Coordinates from ORCA-job pbe E -2780.692773584001
  Au      7.391443      9.256141     10.981544
  Au      9.616812      7.839171     10.072152
  Au      6.966135      6.815082      9.888852
  Au      9.914214      7.512770      7.375546
  Au      7.824712      5.600086      7.584384
  Au      5.240107      6.426439      7.783375
  Au      6.325835     10.565373      8.495014
  Au      8.916100     10.029485      8.504547
  Au      8.279183      7.038053      5.201471
  Au      4.842460      8.778907     10.016337
  Au      4.256141      8.968028      7.342396
  Au      5.627661      7.711030      5.289016
  Mn      7.226770      8.268254      7.413491
13
Coordinates from ORCA-job pbe E -2780.693015802314
  Au      7.395323      9.261076     10.981301
  Au      9.628523      7.854621     10.084830
  Au      6.976426      6.825800      9.861563
  Au      9.903490      7.505225      7.395443
  Au      7.814628      5.585435      7.560668
  Au      5.228742      6.400422      7.770740
  Au      6.329392     10.580665      8.496427
  Au      8.918016     10.030859      8.496281
  Au      8.275662      7.047172      5.205591
  Au      4.845533      8.785255     10.019751
  Au      4.267486      8.961851      7.345008
  Au      5.631577      7.708502      5.287412
  Mn      7.212774      8.261934      7.443110
13
Coordinates from ORCA-job pbe E -2780.693078222527
  Au      7.396147      9.262299     10.978009
  Au      9.633611      7.869952     10.100034
  Au      6.981308      6.833339      9.845598
  Au      9.894217      7.498376      7.407166
  Au      7.802539      5.570814      7.542530
  Au      5.217959      6.379321      7.762366
  Au      6.334358     10.589325      8.495378
  Au      8.921724     10.032953      8.484139
  Au      8.280689      7.067761      5.210772
  Au      4.852680      8.792049     10.022392
  Au      4.281586      8.955311      7.352125
  Au      5.631978      7.705058      5.286119
  Mn      7.198776      8.252260      7.461496
13
Coordinates from ORCA-job pbe E -2780.693103470565
  Au      7.395772      9.262317     10.981652
  Au      9.637287      7.871401     10.103587
  Au      6.983378      6.832232      9.846288
  Au      9.892835      7.495999      7.410292
  Au      7.805510      5.571133      7.541415
  Au      5.221574      6.380883      7.759796
  Au      6.333396     10.589333      8.492854
  Au      8.920897     10.030275      8.484895
  Au      8.278947      7.062607      5.207835
  Au      4.850917      8.793757     10.025018
  Au      4.278354      8.954263      7.352217
  Au      5.629196      7.708306      5.284360
  Mn      7.199507      8.256313      7.457916
13
Coordinates from ORCA-job pbe E -2780.693137177370
  Au      7.396226      9.259338     10.983266
  Au      9.639413      7.878064     10.106502
  Au      6.984531      6.826717      9.847723
  Au      9.890117      7.492849      7.419169
  Au      7.804927      5.571837      7.540297
  Au      5.224915      6.379920      7.757450
  Au      6.334502     10.587377      8.488167
  Au      8.921618     10.028666      8.482670
  Au      8.277444      7.064171      5.208897
  Au      4.850414      8.798204     10.030288
  Au      4.278168      8.952031      7.355876
  Au      5.626621      7.711719      5.279667
  Mn      7.198675      8.257925      7.448153
13
Coordinates from ORCA-job pbe E -2780.693161878927
  Au      7.392283      9.256069     10.985651
  Au      9.641894      7.886190     10.117852
  Au      6.986141      6.826259      9.843653
  Au      9.886708      7.487152      7.423119
  Au      7.809296      5.570293      7.536130
  Au      5.228175      6.374229      7.753016
  Au      6.336961     10.587044      8.484606
  Au      8.920941     10.024824      8.483549
  Au      8.271162      7.065816      5.204484
  Au      4.850464      8.808658     10.033922
  Au      4.282948      8.947711      7.360102
  Au      5.621702      7.713084      5.280018
  Mn      7.198895      8.261489      7.442021
13
Coordinates from ORCA-job pbe E -2780.693184508456
  Au      7.391116      9.252471     10.986951
  Au      9.647049      7.890126     10.121957
  Au      6.987951      6.827125      9.837818
  Au      9.882392      7.486337      7.428423
  Au      7.809218      5.565926      7.533460
  Au      5.230639      6.371779      7.750592
  Au      6.338628     10.588269      8.482370
  Au      8.920340     10.020262      8.480913
  Au      8.274448      7.071165      5.208456
  Au      4.850854      8.817478     10.036854
  Au      4.283505      8.944964      7.364976
  Au      5.618777      7.712154      5.275948
  Mn      7.192656      8.260761      7.439407
13
Coordinates from ORCA-job pbe E -2780.693214433658
  Au      7.391539      9.246616     10.988159
  Au      9.649014      7.890528     10.124179
  Au      6.987798      6.830597      9.831131
  Au      9.881535      7.486904      7.429857
  Au      7.810350      5.564711      7.533030
  Au      5.229339      6.364196      7.750220
  Au      6.342641     10.591724      8.481281
  Au      8.920800     10.017611      8.482184
  Au      8.274941      7.080416      5.211164
  Au      4.848230      8.829385     10.039030
  Au      4.286520      8.940370      7.366627
  Au      5.616148      7.706524      5.275450
  Mn      7.188717      8.259235      7.435814
13
Coordinates from ORCA-job pbe E -2780.693248351971
  Au      7.390539      9.240272     10.993369
  Au      9.653777      7.885352     10.126043
  Au      6.986841      6.838906      9.824034
  Au      9.882788      7.490560      7.428424
  Au      7.816627      5.565292      7.535175
  Au      5.230972      6.358589      7.749447
  Au      6.344734     10.594472      8.481730
  Au      8.920331     10.010991      8.487319
  Au      8.272414      7.083870      5.211547
  Au      4.843918      8.844916     10.040112
  Au      4.287330      8.935201      7.368964
  Au      5.613472      7.700075      5.272763
  Mn      7.183830      8.260321      7.429197
13
Coordinates from ORCA-job pbe E -2780.693280557137
  Au      7.392350      9.237687     11.001121
  Au      9.656387      7.878430     10.127688
  Au      6.984934      6.848384      9.818403
  Au      9.884300      7.493505      7.426740
  Au      7.822462      5.568780      7.537510
  Au      5.232012      6.351170      7.747444
  Au      6.347425     10.597511      8.480759
  Au      8.918881     10.003951      8.494722
  Au      8.271393      7.086208      5.208927
  Au      4.840809      8.857795     10.043066
  Au      4.287877      8.928906      7.369014
  Au      5.609420      7.694094      5.271080
  Mn      7.179323      8.262397      7.421653
13
Coordinates from ORCA-job pbe E -2780.693327616728
  Au      7.396221      9.238667     11.014195
  Au      9.657636      7.867354     10.130092
  Au      6.980132      6.863038      9.812644
  Au      9.886594      7.498617      7.424386
  Au      7.830737      5.576324      7.540721
  Au      5.233967      6.340530      7.742552
  Au      6.349370     10.599407      8.478829
  Au      8.916551      9.993650      8.505471
  Au      8.269340      7.084620      5.204344
  Au      4.840696      8.871374     10.047675
  Au      4.289476      8.921016      7.371629
  Au      5.605269      7.688105      5.266019
  Mn      7.171583      8.266117      7.409569
13
Coordinates from ORCA-job pbe E -2780.693378417281
  Au      7.403300      9.245005     11.029445
  Au      9.654954      7.854987     10.132212
  Au      6.971777      6.880174      9.806954
  Au      9.887725      7.503652      7.423127
  Au      7.837262      5.585847      7.543237
  Au      5.234881      6.326092      7.734621
  Au      6.351418     10.600873      8.475088
  Au      8.913198      9.983613      8.516016
  Au      8.269968      7.082770      5.199630
  Au      4.846730      8.880298     10.054493
  Au      4.294288      8.912280      7.375550
  Au      5.601079      7.682987      5.260486
  Mn      7.160993      8.270240      7.397267
13
Coordinates from ORCA-job pbe E -2780.693407507729
  Au      7.409629      9.251288     11.038149
  Au      9.649758      7.848734     10.132927
  Au      6.963666      6.890142      9.804514
  Au      9.887241      7.505917      7.422716
  Au      7.839899      5.591693      7.544780
  Au      5.235206      6.316076      7.727681
  Au      6.351548     10.601062      8.471868
  Au      8.911066      9.979629      8.520528
  Au      8.271631      7.080408      5.198755
  Au      4.855123      8.880405     10.059814
  Au      4.299421      8.908646      7.380300
  Au      5.599892      7.681593      5.255818
  Mn      7.153491      8.273225      7.390274
13
Coordinates from ORCA-job pbe E -2780.693420326098
  Au      7.412591      9.253908     11.039332
  Au      9.646466      7.848861     10.132036
  Au      6.958662      6.891359      9.803397
  Au      9.885998      7.505049      7.423726
  Au      7.839515      5.591658      7.545506
  Au      5.235210      6.311923      7.723487
  Au      6.350936     10.601595      8.470708
  Au      8.910482      9.980952      8.519669
  Au      8.273161      7.080732      5.200536
  Au      4.860223      8.877980     10.062488
  Au      4.303626      8.908401      7.382984
  Au      5.599776      7.681644      5.254826
  Mn      7.150927      8.274756      7.389430
13
Coordinates from ORCA-job pbe E -2780.693430085604
  Au      7.414408      9.253436     11.038308
  Au      9.644181      7.850751     10.130388
  Au      6.954632      6.890204      9.802851
  Au      9.884810      7.503844      7.424042
  Au      7.839867      5.589556      7.547317
  Au      5.236279      6.309687      7.719204
  Au      6.349959     10.602975      8.470958
  Au      8.910305      9.983410      8.518056
  Au      8.273288      7.080351      5.203497
  Au      4.863015      8.876713     10.064788
  Au      4.306816      8.909462      7.385087
  Au      5.599942      7.681609      5.253864
  Mn      7.150070      8.276821      7.389764
13
Coordinates from ORCA-job pbe E -2780.693439271338
  Au      7.415741      9.251655     11.037269
  Au      9.643180      7.851599     10.127446
  Au      6.949618      6.889004      9.801471
  Au      9.884412      7.503068      7.423488
  Au      7.841346      5.586997      7.550678
  Au      5.237887      6.306712      7.713681
  Au      6.349367     10.605958      8.472868
  Au      8.910468      9.986292      8.517049
  Au      8.272381      7.080198      5.206416
  Au      4.863585      8.878278     10.066731
  Au      4.310723      8.909523      7.386799
  Au      5.599293      7.679939      5.253545
  Mn      7.149572      8.279597      7.390685
13
Coordinates from ORCA-job pbe E -2780.693447591889
  Au      7.416861      9.248369     11.037061
  Au      9.642590      7.850588     10.123850
  Au      6.943886      6.889498      9.800629
  Au      9.885069      7.504171      7.420882
  Au      7.844936      5.585761      7.555785
  Au      5.240556      6.302884      7.707084
  Au      6.349458     10.609940      8.476006
  Au      8.910743      9.987692      8.517985
  Au      8.270176      7.078080      5.208684
  Au      4.862317      8.882804     10.069236
  Au      4.313884      8.908620      7.388187
  Au      5.598053      7.677317      5.251997
  Mn      7.149043      8.283093      7.390738
13
Coordinates from ORCA-job pbe E -2780.693453334892
  Au      7.417458      9.246475     11.037649
  Au      9.642469      7.847876     10.120839
  Au      6.938493      6.890655      9.799918
  Au      9.886528      7.506163      7.418085
  Au      7.848507      5.586651      7.560158
  Au      5.242513      6.298512      7.701850
  Au      6.350506     10.613235      8.479209
  Au      8.911397      9.987864      8.519417
  Au      8.268211      7.076728      5.209066
  Au      4.859750      8.888602     10.070903
  Au      4.316974      8.906231      7.389387
  Au      5.596329      7.674554      5.250892
  Mn      7.148438      8.285271      7.390750
13
Coordinates from ORCA-job pbe E -2780.693458438032
  Au      7.417741      9.245236     11.037643
  Au      9.641207      7.844717     10.118249
  Au      6.933430      6.891748      9.800902
  Au      9.888425      7.509302      7.414776
  Au      7.852023      5.589093      7.563837
  Au      5.244233      6.294679      7.697966
  Au      6.352054     10.615246      8.482261
  Au      8.912340      9.987088      8.520298
  Au      8.266600      7.074844      5.208758
  Au      4.857088      8.893921     10.072878
  Au      4.319273      8.903800      7.390316
  Au      5.595069      7.672973      5.249265
  Mn      7.148089      8.286170      7.390977
13
Coordinates from ORCA-job pbe E -2780.693465722426
  Au      7.417984      9.245222     11.036232
  Au      9.637832      7.840183     10.114782
  Au      6.925505      6.891796      9.803030
  Au      9.891391      7.513754      7.410496
  Au      7.856655      5.593560      7.568032
  Au      5.246098      6.289043      7.693398
  Au      6.354702     10.616739      8.486697
  Au      8.914367      9.986317      8.519235
  Au      8.265019      7.073479      5.207948
  Au      4.853024      8.900947     10.075686
  Au      4.323465      8.900104      7.392303
  Au      5.593712      7.671878      5.247601
  Mn      7.147817      8.285796      7.392683
13
Coordinates from ORCA-job pbe E -2780.693474392794
  Au      7.418094      9.246335     11.032045
  Au      9.631114      7.835210     10.110483
  Au      6.914979      6.890222      9.807089
  Au      9.895273      7.519034      7.405624
  Au      7.862340      5.599161      7.572421
  Au      5.248457      6.282679      7.688525
  Au      6.358062     10.616861      8.492229
  Au      8.917497      9.985897      8.514716
  Au      8.263672      7.072561      5.207521
  Au      4.848365      8.908092     10.080117
  Au      4.328859      8.896251      7.395282
  Au      5.593073      7.672558      5.245871
  Mn      7.147787      8.283958      7.396198
13
Coordinates from ORCA-job pbe E -2780.693481693091
  Au      7.418200      9.248761     11.026089
  Au      9.623174      7.831629     10.106803
  Au      6.905078      6.887339      9.810784
  Au      9.898925      7.522268      7.402223
  Au      7.867559      5.603280      7.575648
  Au      5.250797      6.277368      7.684470
  Au      6.360842     10.615586      8.497051
  Au      8.920880      9.986358      8.507513
  Au      8.262937      7.073191      5.208055
  Au      4.844205      8.912938     10.084646
  Au      4.333873      8.893529      7.398934
  Au      5.593331      7.675120      5.245274
  Mn      7.147771      8.281452      7.400636
13
Coordinates from ORCA-job pbe E -2780.693486733507
  Au      7.418096      9.251216     11.020650
  Au      9.616913      7.829891     10.104547
  Au      6.898859      6.885226      9.812932
  Au      9.901719      7.522732      7.400890
  Au      7.871354      5.604525      7.577561
  Au      5.252988      6.274605      7.681891
  Au      6.362285     10.613668      8.499822
  Au      8.923344      9.987021      8.500794
  Au      8.262546      7.074503      5.209485
  Au      4.841585      8.914587     10.088302
  Au      4.336247      8.892468      7.401861
  Au      5.594136      7.678698      5.245588
  Mn      7.147501      8.279680      7.403803
13
Coordinates from ORCA-job pbe E -2780.693491186355
  Au      7.417861      9.254300     11.015643
  Au      9.612166      7.828486     10.103117
  Au      6.894287      6.884011      9.813848
  Au      9.905687      7.521256      7.400240
  Au      7.874793      5.604111      7.579507
  Au      5.255111      6.272650      7.679287
  Au      6.363073     10.611728      8.501657
  Au      8.925715      9.988182      8.494655
  Au      8.261697      7.075971      5.210931
  Au      4.838354      8.914959     10.091721
  Au      4.336432      8.891638      7.404736
  Au      5.594957      7.683460      5.246471
  Mn      7.147439      8.278067      7.406312
13
Coordinates from ORCA-job pbe E -2780.693493565878
  Au      7.417664      9.256660     11.009369
  Au      9.607755      7.827980     10.100196
  Au      6.892051      6.885615      9.812500
  Au      9.908550      7.518299      7.400722
  Au      7.877847      5.602902      7.581991
  Au      5.257641      6.271668      7.676203
  Au      6.363380     10.609204      8.503361
  Au      8.926984      9.988400      8.490550
  Au      8.261669      7.076755      5.214462
  Au      4.836098      8.914498     10.094275
  Au      4.334996      8.890527      7.408254
  Au      5.595584      7.689584      5.247978
  Mn      7.147353      8.276728      7.408266
13
Coordinates from ORCA-job pbe E -2780.693496459504
  Au      7.417292      9.258345     11.009065
  Au      9.608081      7.826980     10.100058
  Au      6.890789      6.886535      9.812853
  Au      9.910861      7.517509      7.399127
  Au      7.879301      5.601475      7.583734
  Au      5.258436      6.270333      7.673780
  Au      6.363047     10.608938      8.503910
  Au      8.928302      9.988523      8.489330
  Au      8.260906      7.076636      5.214723
  Au      4.833417      8.915422     10.096230
  Au      4.333242      8.889685      7.409358
  Au      5.596038      7.692313      5.247656
  Mn      7.147860      8.276124      7.408303
13
Coordinates from ORCA-job pbe E -2780.693497931213
  Au      7.417110      9.258081     11.010102
  Au      9.609528      7.826416     10.099715
  Au      6.890647      6.887966      9.812046
  Au      9.910898      7.518022      7.398954
  Au      7.879064      5.601272      7.585409
  Au      5.258956      6.269961      7.672617
  Au      6.363091     10.608970      8.504176
  Au      8.927729      9.988193      8.490614
  Au      8.259902      7.075855      5.213766
  Au      4.832975      8.916559     10.096035
  Au      4.333225      8.888456      7.409754
  Au      5.596092      7.692673      5.247413
  Mn      7.148356      8.276394      7.407525
