13
E=  -1352.95448845;c=0;m=5
Au      5.640473477749580      9.158528731297110      7.817511058145710
Au      7.956839825675250      8.891715055483759      5.839589009894010
Au      4.826532858598770      6.640675530049320      7.206674030804110
Au      6.654029497546700     10.667754481513040     10.040030248947490
Au      7.582573900307540     11.163964858652649      7.458262818700970
Au      7.456590468160360      7.911702093279940     10.117440380174489
Au      8.872990750918040      5.190914119649640      7.413368691190020
Au      9.775154502787450      7.645201465604110      8.138608645513131
Au      9.326446820658090      9.966399923235731      9.664252915098960
Au      7.131606494618770      6.378322848757800      5.228651036735660
Au     10.183750517341560     10.263303480438640      7.029725915726200
Au      6.570564794203300      5.452193661035750      9.389716020521160
Cr      7.263929791434560      7.113676741002460      7.632698278548080
