13
Coordinates from ORCA-job pbe E -2674.141610770152
  Au      9.348525      4.064607      7.306146
  Au      9.491458      6.614408      6.283675
  Au      5.856299      7.705451      7.838815
  Au      6.741332      5.268153      6.984401
  Au      6.239014     10.475541      7.732593
  Au      8.568401      8.967996      7.099251
  Au      8.639010     10.918403      9.170972
  Au      6.583939      9.368126     10.287004
  Au      7.855234      4.465952      9.673196
  Au      6.847336      6.737523     10.655689
  Au      9.446922      8.367138      9.991480
  Au     10.441798      5.950387      9.203104
  Cr      8.165242      6.748121      8.454506
13
Coordinates from ORCA-job pbe E -2674.143652830419
  Au      9.342598      4.077675      7.312211
  Au      9.499448      6.614200      6.270630
  Au      5.845313      7.722208      7.829627
  Au      6.729549      5.263112      6.982559
  Au      6.256062     10.442392      7.751508
  Au      8.562813      8.992369      7.101502
  Au      8.623353     10.879326      9.170329
  Au      6.604137      9.355556     10.257646
  Au      7.859654      4.451823      9.669412
  Au      6.833450      6.757863     10.672886
  Au      9.455386      8.387559      9.993930
  Au     10.450048      5.948300      9.213057
  Cr      8.162699      6.759422      8.455536
13
Coordinates from ORCA-job pbe E -2674.145314919640
  Au      9.329203      4.106141      7.326519
  Au      9.507498      6.619428      6.256146
  Au      5.812817      7.719611      7.804560
  Au      6.715692      5.247300      6.985837
  Au      6.242109     10.444787      7.746059
  Au      8.574827      9.010812      7.076254
  Au      8.632928     10.886089      9.177862
  Au      6.616420      9.340679     10.242757
  Au      7.865136      4.434570      9.663953
  Au      6.818782      6.739324     10.703323
  Au      9.492183      8.397653     10.010062
  Au     10.457478      5.935596      9.229429
  Cr      8.159437      6.769817      8.458070
13
Coordinates from ORCA-job pbe E -2674.147277183987
  Au      9.308366      4.161326      7.345263
  Au      9.506473      6.658024      6.246879
  Au      5.784860      7.708929      7.773074
  Au      6.692272      5.250144      7.000000
  Au      6.248616     10.420924      7.740190
  Au      8.586405      9.023991      7.052716
  Au      8.641610     10.862425      9.171221
  Au      6.648982      9.287133     10.206289
  Au      7.854894      4.444414      9.675860
  Au      6.812255      6.698148     10.727118
  Au      9.534671      8.399739     10.019981
  Au     10.454431      5.941953      9.257112
  Cr      8.150676      6.794656      8.465129
13
Coordinates from ORCA-job pbe E -2674.148548126424
  Au      9.294260      4.204550      7.356214
  Au      9.505233      6.689298      6.240010
  Au      5.764536      7.692222      7.739973
  Au      6.668303      5.257507      7.020980
  Au      6.254963     10.412565      7.731375
  Au      8.593617      9.045252      7.033024
  Au      8.649296     10.854306      9.161822
  Au      6.681722      9.222172     10.172719
  Au      7.845942      4.443165      9.689317
  Au      6.805742      6.661772     10.749376
  Au      9.576629      8.394878     10.023246
  Au     10.444423      5.951929      9.288065
  Cr      8.139843      6.822188      8.474712
13
Coordinates from ORCA-job pbe E -2674.149584335209
  Au      9.286083      4.239441      7.359548
  Au      9.499267      6.719289      6.241098
  Au      5.748353      7.691560      7.714000
  Au      6.654243      5.253807      7.046732
  Au      6.262552     10.411479      7.724302
  Au      8.597611      9.060057      7.020350
  Au      8.652845     10.852956      9.151935
  Au      6.716069      9.178638     10.129332
  Au      7.846323      4.426843      9.692372
  Au      6.798546      6.619200     10.774478
  Au      9.606664      8.403184     10.023819
  Au     10.428893      5.947876      9.314432
  Cr      8.127062      6.847476      8.488435
13
Coordinates from ORCA-job pbe E -2674.150848169378
  Au      9.282156      4.255588      7.361281
  Au      9.495383      6.730244      6.244102
  Au      5.740980      7.700661      7.687675
  Au      6.648533      5.246830      7.075677
  Au      6.261743     10.420683      7.720996
  Au      8.598271      9.079586      7.011968
  Au      8.653819     10.863119      9.150215
  Au      6.746888      9.127788     10.093704
  Au      7.849407      4.409467      9.692117
  Au      6.793505      6.587820     10.792236
  Au      9.630697      8.418620     10.015108
  Au     10.407768      5.937936      9.335422
  Cr      8.115360      6.873464      8.500330
13
Coordinates from ORCA-job pbe E -2674.152264004894
  Au      9.288926      4.243790      7.353604
  Au      9.487498      6.727776      6.257139
  Au      5.745101      7.718625      7.664856
  Au      6.654841      5.239211      7.108765
  Au      6.258744     10.444613      7.718244
  Au      8.591794      9.096838      7.016683
  Au      8.651234     10.887320      9.149165
  Au      6.771562      9.093479     10.062891
  Au      7.861125      4.382409      9.682021
  Au      6.788002      6.559100     10.809177
  Au      9.644426      8.438849      9.996842
  Au     10.377798      5.923871      9.347725
  Cr      8.103458      6.895923      8.513722
13
Coordinates from ORCA-job pbe E -2674.153459902854
  Au      9.295065      4.233236      7.346462
  Au      9.477288      6.729688      6.272626
  Au      5.749612      7.733728      7.635648
  Au      6.658336      5.238256      7.141373
  Au      6.253800     10.461068      7.719968
  Au      8.589355      9.105646      7.017770
  Au      8.647318     10.904030      9.153032
  Au      6.796375      9.052702     10.033349
  Au      7.867104      4.368015      9.677863
  Au      6.785584      6.531569     10.820454
  Au      9.664482      8.457063      9.975802
  Au     10.348001      5.916818      9.360853
  Cr      8.092190      6.919986      8.525632
13
Coordinates from ORCA-job pbe E -2674.154488225532
  Au      9.305143      4.213096      7.335785
  Au      9.463926      6.722033      6.295843
  Au      5.755913      7.747157      7.599028
  Au      6.664967      5.242354      7.172749
  Au      6.249016     10.478431      7.724241
  Au      8.583343      9.114758      7.025243
  Au      8.640994     10.920396      9.158047
  Au      6.816079      9.021740     10.008974
  Au      7.874752      4.356609      9.670740
  Au      6.781924      6.504453     10.833153
  Au      9.690381      8.474002      9.950151
  Au     10.316978      5.914485      9.369335
  Cr      8.081094      6.942291      8.537542
13
Coordinates from ORCA-job pbe E -2674.155272326086
  Au      9.314845      4.191724      7.326059
  Au      9.448397      6.721991      6.320404
  Au      5.759407      7.759896      7.555666
  Au      6.669202      5.247040      7.198976
  Au      6.242333     10.488095      7.731561
  Au      8.581612      9.115912      7.028404
  Au      8.634748     10.929300      9.167315
  Au      6.831738      8.991569      9.990863
  Au      7.881003      4.348777      9.664543
  Au      6.775738      6.487506     10.847219
  Au      9.723117      8.491956      9.924220
  Au     10.292062      5.914081      9.376680
  Cr      8.070308      6.963957      8.548924
13
Coordinates from ORCA-job pbe E -2674.155791365827
  Au      9.324686      4.164042      7.318005
  Au      9.435893      6.702572      6.345826
  Au      5.766312      7.773225      7.505382
  Au      6.675761      5.252547      7.217198
  Au      6.233884     10.497818      7.746248
  Au      8.576648      9.125787      7.034705
  Au      8.622843     10.937495      9.181715
  Au      6.840413      8.971964      9.980613
  Au      7.881369      4.352464      9.664643
  Au      6.771909      6.466301     10.858996
  Au      9.759689      8.510105      9.892527
  Au     10.273563      5.915374      9.377166
  Cr      8.061539      6.982110      8.557809
13
Coordinates from ORCA-job pbe E -2674.156115284835
  Au      9.334276      4.131650      7.311804
  Au      9.419097      6.692487      6.375607
  Au      5.778165      7.785034      7.456027
  Au      6.684518      5.259648      7.226773
  Au      6.224325     10.501260      7.759315
  Au      8.574393      9.121782      7.041242
  Au      8.614688     10.940058      9.197325
  Au      6.838656      8.960434      9.984501
  Au      7.888791      4.353178      9.654516
  Au      6.760210      6.467209     10.877555
  Au      9.792886      8.524896      9.858028
  Au     10.261674      5.919159      9.370205
  Cr      8.052830      6.995012      8.567932
13
Coordinates from ORCA-job pbe E -2674.156321081464
  Au      9.329915      4.130499      7.319191
  Au      9.413404      6.693475      6.384760
  Au      5.782384      7.788663      7.410756
  Au      6.677758      5.262002      7.226007
  Au      6.221278     10.492387      7.772536
  Au      8.577250      9.128241      7.035806
  Au      8.606346     10.930002      9.208919
  Au      6.840979      8.940600      9.984287
  Au      7.883698      4.363711      9.660427
  Au      6.753057      6.456977     10.894158
  Au      9.827917      8.533623      9.833400
  Au     10.266480      5.923173      9.372466
  Cr      8.044043      7.008452      8.578121
13
Coordinates from ORCA-job pbe E -2674.156650675454
  Au      9.331666      4.105208      7.323274
  Au      9.406995      6.675599      6.400905
  Au      5.805423      7.797123      7.372082
  Au      6.688000      5.263872      7.208478
  Au      6.213691     10.489274      7.788914
  Au      8.575338      9.126555      7.042037
  Au      8.595648     10.925734      9.225448
  Au      6.821100      8.948635     10.010753
  Au      7.879348      4.385133      9.663802
  Au      6.742581      6.462408     10.912253
  Au      9.847169      8.540273      9.796120
  Au     10.278503      5.925141      9.350383
  Cr      8.039049      7.006850      8.586383
13
Coordinates from ORCA-job pbe E -2674.156975180524
  Au      9.323817      4.101923      7.336361
  Au      9.400598      6.672891      6.412890
  Au      5.830396      7.798081      7.337315
  Au      6.698227      5.262958      7.186951
  Au      6.214987     10.480653      7.796646
  Au      8.573055      9.126700      7.048141
  Au      8.590313     10.914621      9.231821
  Au      6.802133      8.949129     10.037092
  Au      7.876562      4.410390      9.663580
  Au      6.728226      6.464108     10.939545
  Au      9.863885      8.538150      9.759993
  Au     10.294053      5.926293      9.326827
  Cr      8.028256      7.005909      8.603669
13
Coordinates from ORCA-job pbe E -2674.157154630907
  Au      9.318579      4.090499      7.345252
  Au      9.394979      6.673162      6.422769
  Au      5.857613      7.800966      7.306413
  Au      6.713050      5.260696      7.167409
  Au      6.213890     10.476993      7.805443
  Au      8.572692      9.125775      7.052656
  Au      8.581982     10.909269      9.240951
  Au      6.786710      8.946650     10.056917
  Au      7.870171      4.433824      9.669698
  Au      6.716302      6.465325     10.964802
  Au      9.877025      8.538748      9.723195
  Au     10.305888      5.922645      9.301099
  Cr      8.015628      7.007252      8.624229
13
Coordinates from ORCA-job pbe E -2674.157224244414
  Au      9.317065      4.085290      7.346947
  Au      9.392408      6.671949      6.427247
  Au      5.867257      7.799628      7.296833
  Au      6.723496      5.260105      7.159379
  Au      6.212378     10.478070      7.808574
  Au      8.572539      9.126664      7.053935
  Au      8.578867     10.909249      9.245923
  Au      6.783132      8.946749     10.058647
  Au      7.867913      4.439910      9.672337
  Au      6.711110      6.467311     10.975987
  Au      9.882037      8.535544      9.710055
  Au     10.308449      5.922360      9.288406
  Cr      8.007859      7.008975      8.636562
13
Coordinates from ORCA-job pbe E -2674.157271995700
  Au      9.317620      4.078136      7.345459
  Au      9.390976      6.670084      6.430002
  Au      5.869429      7.797744      7.298874
  Au      6.733721      5.262289      7.154116
  Au      6.209335     10.479900      7.807477
  Au      8.573278      9.126798      7.055112
  Au      8.578360     10.911200      9.250695
  Au      6.783221      8.947917     10.053497
  Au      7.866191      4.440603      9.674926
  Au      6.711368      6.470997     10.979257
  Au      9.881106      8.535681      9.708040
  Au     10.307259      5.920156      9.277583
  Cr      8.002645      7.010299      8.645794
13
Coordinates from ORCA-job pbe E -2674.157293640148
  Au      9.319610      4.073796      7.343570
  Au      9.390786      6.668621      6.430256
  Au      5.863208      7.797444      7.309600
  Au      6.740637      5.262981      7.150481
  Au      6.208736     10.481807      7.804473
  Au      8.572646      9.125777      7.055724
  Au      8.580878     10.912857      9.250562
  Au      6.784287      8.951670     10.047669
  Au      7.865825      4.437728      9.674920
  Au      6.713596      6.474790     10.976092
  Au      9.876797      8.532629      9.716105
  Au     10.306479      5.922573      9.272625
  Cr      8.001023      7.009132      8.648755
13
Coordinates from ORCA-job pbe E -2674.157308057069
  Au      9.321203      4.069695      7.342713
  Au      9.390162      6.666326      6.431978
  Au      5.856634      7.795001      7.318809
  Au      6.744391      5.267702      7.146120
  Au      6.209533     10.482582      7.800468
  Au      8.572928      9.123779      7.057279
  Au      8.582207     10.913060      9.249747
  Au      6.784040      8.954652     10.044130
  Au      7.866067      4.436721      9.673288
  Au      6.717112      6.477732     10.973716
  Au      9.873128      8.533700      9.724809
  Au     10.306413      5.922945      9.267296
  Cr      8.000692      7.007910      8.650479
13
Coordinates from ORCA-job pbe E -2674.157318854925
  Au      9.322123      4.066243      7.343761
  Au      9.389420      6.664050      6.433893
  Au      5.850558      7.795816      7.323533
  Au      6.747065      5.270368      7.141438
  Au      6.211035     10.482133      7.798585
  Au      8.572882      9.121068      7.057784
  Au      8.583033     10.911843      9.248420
  Au      6.782224      8.955712     10.044079
  Au      7.865742      4.438660      9.671065
  Au      6.719090      6.478712     10.973017
  Au      9.872682      8.533960      9.730553
  Au     10.308211      5.925840      9.263593
  Cr      8.000445      7.007400      8.651114
13
Coordinates from ORCA-job pbe E -2674.157325616855
  Au      9.322203      4.063754      7.345620
  Au      9.389403      6.661980      6.434727
  Au      5.845987      7.795612      7.325451
  Au      6.747956      5.273012      7.136335
  Au      6.213218     10.481551      7.797503
  Au      8.573320      9.118718      7.057598
  Au      8.582677     10.909972      9.247142
  Au      6.779339      8.956121     10.045911
  Au      7.865270      4.441985      9.668692
  Au      6.720107      6.478762     10.975197
  Au      9.873530      8.534355      9.734439
  Au     10.311335      5.928186      9.260573
  Cr      8.000166      7.007797      8.651644
13
Coordinates from ORCA-job pbe E -2674.157329401220
  Au      9.322216      4.061132      7.346688
  Au      9.389290      6.659588      6.435808
  Au      5.844734      7.796402      7.324963
  Au      6.749639      5.274680      7.133392
  Au      6.214193     10.481167      7.797592
  Au      8.573800      9.117035      7.057176
  Au      8.581760     10.908594      9.247324
  Au      6.776932      8.955245     10.047476
  Au      7.864793      4.445444      9.667024
  Au      6.720354      6.478462     10.978324
  Au      9.874651      8.534988      9.734756
  Au     10.312667      5.929521      9.257845
  Cr      7.999481      7.009547      8.652465
13
Coordinates from ORCA-job pbe E -2674.157334729121
  Au      9.322256      4.058010      7.347542
  Au      9.390410      6.656555      6.435246
  Au      5.842030      7.796439      7.327281
  Au      6.751851      5.276905      7.129289
  Au      6.215850     10.480943      7.797009
  Au      8.575084      9.114683      7.055482
  Au      8.580602     10.906569      9.247329
  Au      6.773308      8.954580     10.048831
  Au      7.863937      4.449891      9.664857
  Au      6.721438      6.478648     10.983046
  Au      9.874319      8.534904      9.737694
  Au     10.314409      5.930890      9.254464
  Cr      7.999014      7.012787      8.652763
13
Coordinates from ORCA-job pbe E -2674.157338832134
  Au      9.322671      4.055165      7.347197
  Au      9.391337      6.653980      6.434908
  Au      5.840077      7.796223      7.330460
  Au      6.754709      5.278796      7.127020
  Au      6.216902     10.480886      7.796111
  Au      8.576300      9.113125      7.053720
  Au      8.579967     10.904760      9.247626
  Au      6.770389      8.954014     10.048912
  Au      7.863346      4.453261      9.663209
  Au      6.722962      6.479304     10.986909
  Au      9.872867      8.534299      9.740741
  Au     10.314241      5.931541      9.251403
  Cr      7.998742      7.016451      8.652616
13
Coordinates from ORCA-job pbe E -2674.157341404081
  Au      9.322912      4.054249      7.346285
  Au      9.392393      6.653514      6.433765
  Au      5.838152      7.795144      7.334589
  Au      6.756334      5.279576      7.126498
  Au      6.217502     10.480706      7.794803
  Au      8.577423      9.112957      7.051834
  Au      8.580067     10.903408      9.247540
  Au      6.768619      8.954333     10.047992
  Au      7.862964      4.454457      9.662710
  Au      6.724964      6.480445     10.988378
  Au      9.870624      8.532871      9.744764
  Au     10.313383      5.931177      9.250120
  Cr      7.999172      7.018967      8.651554
13
Coordinates from ORCA-job pbe E -2674.157342853873
  Au      9.323155      4.053740      7.345375
  Au      9.392476      6.653874      6.433883
  Au      5.837264      7.794274      7.336388
  Au      6.757499      5.279753      7.126872
  Au      6.217629     10.480425      7.793897
  Au      8.577967      9.113692      7.050736
  Au      8.580511     10.902230      9.247583
  Au      6.767471      8.954823     10.047320
  Au      7.862891      4.454733      9.662726
  Au      6.726518      6.481426     10.988812
  Au      9.869503      8.531714      9.746996
  Au     10.312272      5.930660      9.249333
  Cr      7.999354      7.020461      8.650912
