11
Coordinates from ORCA-job pbe E -2402.457144559473
  Au      6.395292      5.689377     11.499806
  Au      9.813617      7.498848      9.901220
  Au      9.386591      5.162884     11.304412
  Au      8.549142      3.494667      8.949485
  Au      5.797128      4.529497      8.796267
  Au      6.940830      8.096640     10.401245
  Au      8.572983      9.989926      9.293764
  Au      8.962653      8.324182      7.178961
  Au      9.326580      5.624570      7.387652
  Au      6.582190      6.835986      7.465656
  Cr      7.837386      5.866475      9.454040
11
Coordinates from ORCA-job pbe E -2402.460439235078
  Au      6.377539      5.705806     11.520741
  Au      9.802870      7.509195      9.911233
  Au      9.425114      5.194177     11.311147
  Au      8.553087      3.471704      8.924851
  Au      5.787976      4.518738      8.766506
  Au      6.940719      8.124071     10.401953
  Au      8.591851      9.964736      9.304786
  Au      8.938851      8.274539      7.212822
  Au      9.333783      5.638359      7.375121
  Au      6.574474      6.836932      7.453279
  Cr      7.838128      5.874794      9.450070
11
Coordinates from ORCA-job pbe E -2402.463894483302
  Au      6.350487      5.750729     11.545199
  Au      9.803831      7.524888      9.940635
  Au      9.486616      5.234620     11.317333
  Au      8.552242      3.433781      8.879386
  Au      5.778324      4.494571      8.720207
  Au      6.930372      8.144986     10.419982
  Au      8.617709      9.997734      9.331468
  Au      8.919995      8.239185      7.246332
  Au      9.346190      5.598390      7.356084
  Au      6.541249      6.819127      7.430735
  Cr      7.837377      5.875041      9.445147
11
Coordinates from ORCA-job pbe E -2402.466549227788
  Au      6.331012      5.820263     11.550470
  Au      9.800178      7.550542      9.968831
  Au      9.541482      5.269836     11.311265
  Au      8.544784      3.416102      8.829836
  Au      5.787538      4.479574      8.673591
  Au      6.941187      8.160327     10.434201
  Au      8.622492      9.997696      9.359996
  Au      8.893582      8.196881      7.301012
  Au      9.350601      5.549700      7.347834
  Au      6.512922      6.795648      7.415928
  Cr      7.838613      5.876483      9.439545
11
Coordinates from ORCA-job pbe E -2402.468598260263
  Au      6.311931      5.875956     11.551203
  Au      9.799981      7.584820     10.001485
  Au      9.586932      5.284097     11.297782
  Au      8.524913      3.394679      8.789700
  Au      5.808593      4.452596      8.632819
  Au      6.957252      8.185664     10.443940
  Au      8.629852     10.028431      9.383337
  Au      8.867781      8.151731      7.351929
  Au      9.351351      5.510840      7.340207
  Au      6.486716      6.770952      7.404086
  Cr      7.839090      5.873285      9.436021
11
Coordinates from ORCA-job pbe E -2402.470446704120
  Au      6.295877      5.921881     11.546056
  Au      9.796105      7.622731     10.039462
  Au      9.623575      5.292518     11.272801
  Au      8.494968      3.366819      8.764464
  Au      5.837747      4.408829      8.600713
  Au      6.981515      8.216485     10.441679
  Au      8.643819     10.061266      9.399615
  Au      8.842356      8.121476      7.411416
  Au      9.350646      5.481074      7.330149
  Au      6.459422      6.752344      7.393544
  Cr      7.838363      5.867628      9.432609
11
Coordinates from ORCA-job pbe E -2402.472004753910
  Au      6.286394      5.960952     11.533490
  Au      9.791740      7.658444     10.082791
  Au      9.649489      5.289160     11.236885
  Au      8.465089      3.338879      8.752873
  Au      5.869990      4.359177      8.575390
  Au      7.003491      8.241897     10.431333
  Au      8.664565     10.102909      9.404111
  Au      8.817691      8.096549      7.472566
  Au      9.345542      5.465559      7.323618
  Au      6.433818      6.738537      7.389723
  Cr      7.836581      5.860988      9.429728
11
Coordinates from ORCA-job pbe E -2402.473223717762
  Au      6.279955      5.991791     11.519547
  Au      9.789651      7.689232     10.128758
  Au      9.670418      5.279123     11.193894
  Au      8.454106      3.315446      8.751180
  Au      5.892448      4.320029      8.550923
  Au      7.021669      8.270297     10.406550
  Au      8.688559     10.136905      9.405334
  Au      8.790981      8.078675      7.536381
  Au      9.334900      5.451769      7.320808
  Au      6.407204      6.723419      7.391786
  Cr      7.834500      5.856364      9.427348
11
Coordinates from ORCA-job pbe E -2402.474339015372
  Au      6.279738      6.023722     11.504842
  Au      9.792145      7.710871     10.175179
  Au      9.687889      5.261676     11.146601
  Au      8.461494      3.297334      8.760565
  Au      5.904626      4.291948      8.528285
  Au      7.024141      8.289447     10.374105
  Au      8.714944     10.164660      9.404510
  Au      8.763845      8.061520      7.595212
  Au      9.320211      5.444806      7.320027
  Au      6.383335      6.712496      7.397510
  Cr      7.832023      5.854571      9.425672
11
Coordinates from ORCA-job pbe E -2402.475423585925
  Au      6.279896      6.050785     11.491631
  Au      9.797121      7.724552     10.221898
  Au      9.704496      5.235647     11.093983
  Au      8.480120      3.289103      8.783767
  Au      5.914428      4.272478      8.509342
  Au      7.019167      8.308551     10.327076
  Au      8.739974     10.182142      9.408859
  Au      8.738892      8.051153      7.646093
  Au      9.303952      5.438444      7.318778
  Au      6.356893      6.704604      7.406613
  Cr      7.829451      5.855592      9.424468
11
Coordinates from ORCA-job pbe E -2402.476526655938
  Au      6.279417      6.079006     11.480065
  Au      9.798806      7.728772     10.268295
  Au      9.723651      5.202702     11.035226
  Au      8.504463      3.292818      8.819109
  Au      5.926795      4.257875      8.495098
  Au      7.003432      8.319377     10.273762
  Au      8.765250     10.190912      9.415465
  Au      8.718890      8.041676      7.686742
  Au      9.288689      5.435093      7.317094
  Au      6.328677      6.704915      7.418531
  Cr      7.826322      5.859905      9.423122
11
Coordinates from ORCA-job pbe E -2402.477684593323
  Au      6.273669      6.106588     11.471355
  Au      9.794718      7.721510     10.311161
  Au      9.748688      5.163338     10.971315
  Au      8.532169      3.307754      8.868066
  Au      5.942738      4.250958      8.485921
  Au      6.980878      8.325644     10.215786
  Au      8.786675     10.189634      9.426758
  Au      8.705499      8.034813      7.714939
  Au      9.277812      5.432890      7.312457
  Au      6.298025      6.712311      7.433410
  Cr      7.823522      5.867611      9.421342
11
Coordinates from ORCA-job pbe E -2402.478786196999
  Au      6.258042      6.135055     11.464879
  Au      9.780776      7.702784     10.347358
  Au      9.784213      5.121071     10.904700
  Au      8.559336      3.330721      8.926639
  Au      5.965000      4.250056      8.482876
  Au      6.952352      8.328795     10.161626
  Au      8.805090     10.179389      9.443049
  Au      8.699415      8.028791      7.729052
  Au      9.272903      5.430274      7.303982
  Au      6.265948      6.727217      7.449882
  Cr      7.821318      5.878899      9.418464
11
Coordinates from ORCA-job pbe E -2402.479567974307
  Au      6.229102      6.166450     11.454882
  Au      9.756509      7.685851     10.380650
  Au      9.833897      5.091797     10.842125
  Au      8.578049      3.343118      8.976902
  Au      5.996595      4.244641      8.481439
  Au      6.928896      8.341483     10.118608
  Au      8.829757     10.168374      9.468416
  Au      8.694117      8.018789      7.739602
  Au      9.267268      5.422802      7.290912
  Au      6.230604      6.737889      7.464956
  Cr      7.819597      5.891856      9.414017
11
Coordinates from ORCA-job pbe E -2402.479954815298
  Au      6.198267      6.207760     11.435614
  Au      9.741095      7.695990     10.421578
  Au      9.882443      5.086669     10.799420
  Au      8.582865      3.325486      8.989676
  Au      6.023167      4.215654      8.469696
  Au      6.924982      8.364305     10.094436
  Au      8.868635     10.178284      9.490064
  Au      8.674357      8.002852      7.770900
  Au      9.250295      5.415414      7.275918
  Au      6.200054      6.726796      7.472143
  Cr      7.818232      5.893841      9.413063
11
Coordinates from ORCA-job pbe E -2402.480379399354
  Au      6.156341      6.223253     11.414581
  Au      9.723747      7.682141     10.435040
  Au      9.921668      5.103389     10.792744
  Au      8.590198      3.316602      8.986759
  Au      6.038029      4.211685      8.477821
  Au      6.920661      8.376151     10.103217
  Au      8.891324     10.160199      9.497989
  Au      8.674037      8.002655      7.756711
  Au      9.235937      5.418400      7.265008
  Au      6.191271      6.721907      7.484533
  Cr      7.821180      5.896667      9.418105
11
Coordinates from ORCA-job pbe E -2402.480923705385
  Au      6.083667      6.241722     11.365381
  Au      9.688339      7.669209     10.473298
  Au      9.980914      5.069908     10.743941
  Au      8.623717      3.315665      9.008057
  Au      6.068264      4.206234      8.498332
  Au      6.913508      8.401787     10.097371
  Au      8.918864     10.133297      9.490610
  Au      8.679827      8.013590      7.734794
  Au      9.203614      5.429154      7.262385
  Au      6.178002      6.728646      7.525376
  Cr      7.825678      5.903840      9.432965
11
Coordinates from ORCA-job pbe E -2402.481333265471
  Au      6.037619      6.242454     11.319676
  Au      9.681785      7.672315     10.481827
  Au      9.996357      5.073350     10.747765
  Au      8.630803      3.294367      8.973471
  Au      6.075504      4.189314      8.517007
  Au      6.941893      8.426791     10.124136
  Au      8.921327     10.144434      9.475505
  Au      8.676544      8.022064      7.724850
  Au      9.174130      5.428968      7.271463
  Au      6.195967      6.721633      7.548104
  Cr      7.832464      5.897360      9.448704
11
Coordinates from ORCA-job pbe E -2402.481730595367
  Au      5.991324      6.252417     11.266597
  Au      9.680374      7.653312     10.486687
  Au     10.008594      5.065208     10.721983
  Au      8.659324      3.290209      8.969227
  Au      6.081511      4.180410      8.543231
  Au      6.947825      8.440032     10.124692
  Au      8.925968     10.154614      9.475579
  Au      8.676963      8.031942      7.721626
  Au      9.143969      5.427078      7.278483
  Au      6.208504      6.721496      7.579494
  Cr      7.840036      5.896331      9.464911
11
Coordinates from ORCA-job pbe E -2402.482163932066
  Au      5.931316      6.276017     11.197576
  Au      9.685417      7.654980     10.482518
  Au     10.023022      5.059620     10.696114
  Au      8.686677      3.277653      8.949207
  Au      6.082238      4.165141      8.576823
  Au      6.962006      8.451574     10.136544
  Au      8.935101     10.170042      9.481620
  Au      8.677771      8.043193      7.737752
  Au      9.112801      5.420849      7.281374
  Au      6.219142      6.702234      7.606782
  Cr      7.848902      5.891748      9.486199
11
Coordinates from ORCA-job pbe E -2402.482933182930
  Au      5.817662      6.309985     11.071764
  Au      9.703553      7.653564     10.474823
  Au     10.054957      5.051465     10.646442
  Au      8.732552      3.268156      8.924638
  Au      6.083829      4.146081      8.644679
  Au      6.984524      8.475545     10.154822
  Au      8.955563     10.191543      9.504178
  Au      8.670418      8.044951      7.763081
  Au      9.065678      5.418489      7.278989
  Au      6.231626      6.665478      7.644986
  Cr      7.864030      5.887795      9.524106
11
Coordinates from ORCA-job pbe E -2402.483992858467
  Au      5.690149      6.346738     10.946096
  Au      9.715404      7.648784     10.480243
  Au     10.110656      5.042763     10.598193
  Au      8.766863      3.254655      8.903836
  Au      6.097733      4.123020      8.714298
  Au      7.000772      8.499287     10.175094
  Au      8.979258     10.198234      9.518607
  Au      8.664091      8.055887      7.779090
  Au      9.015656      5.420512      7.271003
  Au      6.242529      6.638028      7.684364
  Cr      7.881281      5.885144      9.561686
11
Coordinates from ORCA-job pbe E -2402.484850235826
  Au      5.568133      6.382640     10.819038
  Au      9.720135      7.643716     10.493516
  Au     10.169795      5.033913     10.551406
  Au      8.801374      3.240018      8.880380
  Au      6.114123      4.100168      8.778987
  Au      7.019212      8.528948     10.197105
  Au      9.004129     10.204270      9.528036
  Au      8.657811      8.067090      7.794215
  Au      8.964476      5.418914      7.264082
  Au      6.248095      6.610702      7.726408
  Cr      7.897110      5.882673      9.599334
11
Coordinates from ORCA-job pbe E -2402.487614370826
  Au      5.475391      6.389776     10.657557
  Au      9.764199      7.649880     10.481790
  Au     10.216891      5.035972     10.524537
  Au      8.801207      3.251551      8.859944
  Au      6.103631      4.095034      8.887055
  Au      7.036876      8.528937     10.244272
  Au      9.014134     10.195288      9.544643
  Au      8.641240      8.073978      7.813361
  Au      8.930821      5.437054      7.254236
  Au      6.267653      6.574023      7.727587
  Cr      7.912348      5.881558      9.637527
11
Coordinates from ORCA-job pbe E -2402.490558443611
  Au      5.454997      6.375931     10.551440
  Au      9.832330      7.658171     10.479440
  Au     10.263854      5.041359     10.501247
  Au      8.739566      3.289992      8.890915
  Au      6.085219      4.102009      8.995614
  Au      7.015781      8.486256     10.275899
  Au      9.011382     10.165476      9.565567
  Au      8.619452      8.063780      7.835171
  Au      8.943196      5.483070      7.224580
  Au      6.279033      6.558646      7.664786
  Cr      7.919583      5.888361      9.647850
11
Coordinates from ORCA-job pbe E -2402.491537937171
  Au      5.380625      6.370798     10.396071
  Au      9.874749      7.669279     10.448086
  Au     10.295989      5.052026     10.487105
  Au      8.742616      3.309782      8.869957
  Au      6.067003      4.103424      9.095884
  Au      7.035009      8.484364     10.319698
  Au      9.032653     10.156861      9.593408
  Au      8.600098      8.078888      7.862944
  Au      8.909736      5.489214      7.215159
  Au      6.296487      6.510739      7.660116
  Cr      7.929426      5.887676      9.684081
11
Coordinates from ORCA-job pbe E -2402.492164688212
  Au      5.343048      6.459450     10.271908
  Au      9.875417      7.653778     10.503834
  Au     10.338801      5.047881     10.411038
  Au      8.759037      3.287417      8.876566
  Au      6.103142      4.034270      9.136463
  Au      7.033726      8.516538     10.332761
  Au      9.031652     10.162637      9.602669
  Au      8.587238      8.060228      7.882410
  Au      8.851806      5.498846      7.214331
  Au      6.299637      6.504307      7.692341
  Cr      7.940887      5.887700      9.708189
11
Coordinates from ORCA-job pbe E -2402.492038899583
  Au      5.346709      6.522343     10.338780
  Au      9.893504      7.657641     10.471307
  Au     10.330724      5.076405     10.414097
  Au      8.733284      3.312548      8.893841
  Au      6.110525      3.990112      9.109143
  Au      7.022056      8.486015     10.343653
  Au      9.029745     10.154824      9.627957
  Au      8.581190      8.072522      7.906907
  Au      8.878264      5.463580      7.199235
  Au      6.304622      6.488628      7.630751
  Cr      7.933767      5.888432      9.696837
11
Coordinates from ORCA-job pbe E -2402.493860192496
  Au      5.300002      6.484811     10.262592
  Au      9.918645      7.674985     10.445333
  Au     10.349829      5.075355     10.405361
  Au      8.745831      3.335482      8.896357
  Au      6.085803      4.021650      9.151115
  Au      7.037059      8.486282     10.357888
  Au      9.066086     10.153231      9.656196
  Au      8.559975      8.071181      7.925668
  Au      8.871187      5.470049      7.192301
  Au      6.297242      6.447155      7.623735
  Cr      7.932734      5.892870      9.715963
11
Coordinates from ORCA-job pbe E -2402.494127173683
  Au      5.307818      6.462701     10.256220
  Au      9.936448      7.660123     10.425226
  Au     10.350575      5.063479     10.391785
  Au      8.739332      3.355318      8.935114
  Au      6.062507      4.058220      9.163793
  Au      7.030895      8.466335     10.368003
  Au      9.051308     10.154252      9.673790
  Au      8.549573      8.066480      7.907480
  Au      8.881517      5.490050      7.189022
  Au      6.319809      6.435496      7.605393
  Cr      7.934611      5.900598      9.716683
11
Coordinates from ORCA-job pbe E -2402.494431598605
  Au      5.289045      6.483559     10.231694
  Au      9.946439      7.665086     10.418068
  Au     10.368962      5.072032     10.375860
  Au      8.733631      3.360390      8.945399
  Au      6.063036      4.046604      9.165177
  Au      7.031995      8.463104     10.375669
  Au      9.063685     10.149112      9.686624
  Au      8.535772      8.072835      7.926657
  Au      8.883150      5.482181      7.185371
  Au      6.314985      6.415538      7.598155
  Cr      7.933691      5.902611      9.723835
11
Coordinates from ORCA-job pbe E -2402.494595273383
  Au      5.281478      6.492255     10.227029
  Au      9.954149      7.667332     10.402585
  Au     10.380183      5.078968     10.366476
  Au      8.722977      3.364311      8.959105
  Au      6.053298      4.042710      9.151138
  Au      7.034325      8.455543     10.391628
  Au      9.070028     10.150745      9.692692
  Au      8.519874      8.077789      7.930948
  Au      8.894262      5.478540      7.191956
  Au      6.321748      6.399969      7.590136
  Cr      7.932071      5.904889      9.728814
11
Coordinates from ORCA-job pbe E -2402.494786362218
  Au      5.276129      6.499408     10.215396
  Au      9.966020      7.667381     10.379563
  Au     10.401780      5.082525     10.338544
  Au      8.701926      3.369098      8.993051
  Au      6.032875      4.044536      9.125621
  Au      7.040443      8.443850     10.415273
  Au      9.069228     10.150643      9.699338
  Au      8.492598      8.088307      7.934616
  Au      8.921153      5.477120      7.211491
  Au      6.331736      6.379798      7.582265
  Cr      7.930503      5.910385      9.737349
11
Coordinates from ORCA-job pbe E -2402.494961691351
  Au      5.279347      6.498084     10.205895
  Au      9.974753      7.671543     10.355656
  Au     10.416173      5.089384     10.310736
  Au      8.675540      3.366176      9.018345
  Au      6.006583      4.039367      9.100206
  Au      7.049097      8.436058     10.445821
  Au      9.068560     10.155193      9.698832
  Au      8.469192      8.099486      7.932899
  Au      8.946916      5.481770      7.244680
  Au      6.350167      6.362576      7.572827
  Cr      7.928065      5.913413      9.746611
11
Coordinates from ORCA-job pbe E -2402.495190454424
  Au      5.293406      6.492414     10.197444
  Au      9.982298      7.675534     10.335404
  Au     10.432965      5.091513     10.251300
  Au      8.639654      3.359950      9.058544
  Au      5.972226      4.034145      9.068233
  Au      7.057807      8.431891     10.471932
  Au      9.060726     10.160395      9.697900
  Au      8.443901      8.111827      7.931921
  Au      8.992079      5.490497      7.301473
  Au      6.365501      6.346561      7.562039
  Cr      7.923829      5.918323      9.756317
11
Coordinates from ORCA-job pbe E -2402.495488536019
  Au      5.309278      6.485192     10.165093
  Au      9.997554      7.684695     10.307806
  Au     10.457886      5.102244     10.139094
  Au      8.581187      3.350304      9.112628
  Au      5.917953      4.022906      9.048010
  Au      7.066018      8.430604     10.510412
  Au      9.053966     10.165100      9.707900
  Au      8.410039      8.129310      7.938653
  Au      9.056065      5.507447      7.392909
  Au      6.397426      6.309556      7.534394
  Cr      7.917020      5.925693      9.775609
11
Coordinates from ORCA-job pbe E -2402.495544414317
  Au      5.315875      6.487846     10.139849
  Au     10.009307      7.689773     10.295510
  Au     10.479551      5.109606     10.020112
  Au      8.534111      3.344233      9.159952
  Au      5.876738      4.018113      9.043020
  Au      7.062667      8.434047     10.532109
  Au      9.047631     10.166267      9.725672
  Au      8.383922      8.138259      7.947500
  Au      9.115522      5.518700      7.468396
  Au      6.428284      6.272155      7.507026
  Cr      7.910782      5.934053      9.793362
11
Coordinates from ORCA-job pbe E -2402.495866709281
  Au      5.302214      6.493171     10.150917
  Au     10.000073      7.684874     10.322235
  Au     10.472749      5.102943     10.064301
  Au      8.561027      3.345143      9.123187
  Au      5.907744      4.023975      9.081452
  Au      7.048165      8.442734     10.501749
  Au      9.050106     10.160199      9.727981
  Au      8.410367      8.125890      7.946294
  Au      9.084161      5.513150      7.415370
  Au      6.414428      6.290409      7.513793
  Cr      7.913358      5.930562      9.785230
11
Coordinates from ORCA-job pbe E -2402.496125076668
  Au      5.288325      6.504700     10.158051
  Au      9.994478      7.678029     10.340188
  Au     10.476225      5.102996     10.039722
  Au      8.564501      3.339275      9.109178
  Au      5.917397      4.032509      9.107433
  Au      7.031304      8.455652     10.480826
  Au      9.047972     10.158183      9.738519
  Au      8.421711      8.119523      7.951555
  Au      9.089433      5.509006      7.406773
  Au      6.421896      6.281888      7.511034
  Cr      7.911150      5.931290      9.789228
11
Coordinates from ORCA-job pbe E -2402.496366944762
  Au      5.263992      6.524179     10.165419
  Au      9.983662      7.665991     10.363540
  Au     10.482243      5.105947      9.974723
  Au      8.560710      3.326701      9.091335
  Au      5.926208      4.046534      9.144114
  Au      7.006108      8.476592     10.455276
  Au      9.043763     10.154470      9.752235
  Au      8.432089      8.114857      7.960232
  Au      9.112853      5.503848      7.413139
  Au      6.448306      6.260516      7.508960
  Cr      7.904458      5.933415      9.803535
11
Coordinates from ORCA-job pbe E -2402.496394268428
  Au      5.262581      6.524198     10.173873
  Au      9.978518      7.663885     10.366004
  Au     10.477557      5.106362      9.976695
  Au      8.562965      3.322824      9.082683
  Au      5.929586      4.048649      9.144134
  Au      7.005616      8.477951     10.451091
  Au      9.043746     10.156352      9.747166
  Au      8.435637      8.115885      7.958946
  Au      9.115167      5.503251      7.412989
  Au      6.451523      6.262095      7.513831
  Cr      7.901496      5.931599      9.805097
11
Coordinates from ORCA-job pbe E -2402.496430476031
  Au      5.261765      6.522823     10.179983
  Au      9.971206      7.663560     10.368703
  Au     10.469570      5.106256      9.976381
  Au      8.564261      3.317908      9.071294
  Au      5.931945      4.049743      9.147944
  Au      7.008707      8.476882     10.448751
  Au      9.043905     10.158774      9.738714
  Au      8.439509      8.118800      7.956342
  Au      9.120643      5.505781      7.415157
  Au      6.457880      6.264335      7.519625
  Cr      7.895001      5.928188      9.809613
11
Coordinates from ORCA-job pbe E -2402.496453350480
  Au      5.263874      6.522109     10.182131
  Au      9.966539      7.665131     10.368093
  Au     10.462843      5.106035      9.984433
  Au      8.566923      3.316139      9.063995
  Au      5.932916      4.047871      9.147502
  Au      7.016410      8.472668     10.450574
  Au      9.044139     10.162048      9.731864
  Au      8.441339      8.120448      7.952852
  Au      9.121777      5.508590      7.415203
  Au      6.458103      6.267649      7.523613
  Cr      7.889530      5.924363      9.812248
11
Coordinates from ORCA-job pbe E -2402.496468025860
  Au      5.264405      6.524445     10.176233
  Au      9.965601      7.666966     10.365816
  Au     10.462104      5.106950      9.983467
  Au      8.566406      3.316710      9.063260
  Au      5.930994      4.045711      9.149315
  Au      7.023147      8.468461     10.455437
  Au      9.044230     10.163285      9.731020
  Au      8.439672      8.121197      7.951043
  Au      9.124103      5.512010      7.417791
  Au      6.458440      6.265616      7.522871
  Cr      7.885290      5.921700      9.816253
11
Coordinates from ORCA-job pbe E -2402.496476424039
  Au      5.264542      6.527688     10.171965
  Au      9.965819      7.667445     10.364101
  Au     10.463931      5.107381      9.985482
  Au      8.567535      3.318233      9.063870
  Au      5.930885      4.044606      9.149224
  Au      7.027091      8.466319     10.458134
  Au      9.044096     10.163294      9.732107
  Au      8.437922      8.120400      7.949894
  Au      9.122761      5.513590      7.418046
  Au      6.456196      6.264589      7.521578
  Cr      7.883614      5.919505      9.818108
11
Coordinates from ORCA-job pbe E -2402.496483126586
  Au      5.263751      6.531058     10.167983
  Au      9.966974      7.666960     10.362285
  Au     10.467592      5.107871      9.983327
  Au      8.567480      3.319395      9.065956
  Au      5.930429      4.044877      9.149441
  Au      7.028356      8.465911     10.459714
  Au      9.044053     10.162507      9.734411
  Au      8.435166      8.119927      7.949978
  Au      9.122632      5.515129      7.420095
  Au      6.455294      6.262131      7.519015
  Cr      7.882665      5.917285      9.820303
11
Coordinates from ORCA-job pbe E -2402.496489367177
  Au      5.263273      6.533306     10.167164
  Au      9.967523      7.665775     10.360206
  Au     10.470541      5.107570      9.983285
  Au      8.568339      3.319723      9.067258
  Au      5.930918      4.045992      9.148219
  Au      7.028421      8.466667     10.459530
  Au      9.044310     10.161776      9.735394
  Au      8.432359      8.120108      7.950063
  Au      9.122099      5.516596      7.422365
  Au      6.454544      6.261555      7.517076
  Cr      7.882065      5.913984      9.821948
11
Coordinates from ORCA-job pbe E -2402.496494388685
  Au      5.263124      6.533723     10.168334
  Au      9.967480      7.664543     10.357533
  Au     10.471951      5.106620      9.983536
  Au      8.568989      3.318951      9.067984
  Au      5.931280      4.047408      9.146627
  Au      7.027700      8.467918     10.458443
  Au      9.044998     10.161598      9.734937
  Au      8.429670      8.121683      7.950285
  Au      9.122635      5.518357      7.425406
  Au      6.455032      6.262202      7.515945
  Cr      7.881532      5.910046      9.823478
11
Coordinates from ORCA-job pbe E -2402.496496836233
  Au      5.263526      6.532653     10.170445
  Au      9.966631      7.664025     10.355528
  Au     10.471163      5.105451      9.985051
  Au      8.569547      3.317729      9.067629
  Au      5.931543      4.048003      9.145493
  Au      7.027142      8.468649     10.457159
  Au      9.045592     10.162158      9.733510
  Au      8.428682      8.123536      7.950154
  Au      9.123326      5.519479      7.427024
  Au      6.455869      6.264119      7.516464
  Cr      7.881369      5.907248      9.824052
11
Coordinates from ORCA-job pbe E -2402.496497728865
  Au      5.263816      6.531718     10.171215
  Au      9.965885      7.664128     10.354398
  Au     10.470089      5.104887      9.985926
  Au      8.569544      3.317019      9.067198
  Au      5.931348      4.047888      9.145443
  Au      7.027034      8.468587     10.456560
  Au      9.045867     10.162858      9.732779
  Au      8.428828      8.124698      7.949973
  Au      9.123959      5.519923      7.427330
  Au      6.456548      6.265295      7.517459
  Cr      7.881473      5.906049      9.824226
