15
Coordinates from ORCA-job pbe E -3165.070268829568
  Au      5.145931      8.143230      7.421090
  Au      8.057004     10.463903      8.839251
  Au      5.280514     10.851023      8.141633
  Au      9.900510     10.402351      6.822928
  Au      7.055729     10.182856      6.104560
  Au      6.386589      7.684995      4.868661
  Au      9.069939      8.624111      4.849693
  Au     10.255834      7.631281      7.346262
  Au      8.673068      5.927255      5.474765
  Au      6.158335      5.562596      6.758391
  Au      6.068100      9.008588     10.124917
  Au      8.680048      5.471029      8.278466
  Au      6.242131      6.330618      9.449178
  Au      8.712975      7.890801      9.798356
  Fe      7.716557      7.837494      7.290356
15
Coordinates from ORCA-job pbe E -3165.072687709812
  Au      5.148234      8.152714      7.423365
  Au      8.055092     10.437637      8.824588
  Au      5.294874     10.817692      8.134129
  Au      9.882161     10.378024      6.827670
  Au      7.052479     10.159097      6.112658
  Au      6.404023      7.697609      4.897529
  Au      9.054265      8.602809      4.883863
  Au     10.257795      7.630933      7.346428
  Au      8.649691      5.958686      5.497900
  Au      6.173324      5.586924      6.756874
  Au      6.079913      8.997146     10.099798
  Au      8.683333      5.503977      8.267681
  Au      6.246948      6.352302      9.428819
  Au      8.706649      7.893964      9.775906
  Fe      7.714482      7.842615      7.291300
15
Coordinates from ORCA-job pbe E -3165.073506154973
  Au      5.134110      8.166777      7.437830
  Au      8.056079     10.420639      8.818083
  Au      5.289048     10.800917      8.140746
  Au      9.882503     10.368385      6.829819
  Au      7.040688     10.152562      6.115814
  Au      6.391981      7.710621      4.890610
  Au      9.079251      8.600974      4.893927
  Au     10.277613      7.635321      7.347737
  Au      8.640982      5.944395      5.493125
  Au      6.174349      5.587121      6.764132
  Au      6.085948      8.986729     10.087658
  Au      8.696329      5.518578      8.274049
  Au      6.238202      6.369112      9.414212
  Au      8.703363      7.901879      9.767027
  Fe      7.712817      7.848119      7.293738
15
Coordinates from ORCA-job pbe E -3165.074209069639
  Au      5.104819      8.171333      7.448742
  Au      8.062085     10.414427      8.809562
  Au      5.264952     10.812878      8.150163
  Au      9.888410     10.357568      6.827553
  Au      7.023147     10.146990      6.111479
  Au      6.395691      7.728218      4.894900
  Au      9.099223      8.571577      4.916247
  Au     10.309405      7.632676      7.342722
  Au      8.619314      5.942417      5.491647
  Au      6.182339      5.587389      6.763339
  Au      6.083493      8.979492     10.090635
  Au      8.724902      5.536614      8.274194
  Au      6.224186      6.372871      9.387689
  Au      8.709387      7.905055      9.765108
  Fe      7.711912      7.852624      7.294528
15
Coordinates from ORCA-job pbe E -3165.074522998286
  Au      5.088832      8.170025      7.454889
  Au      8.053948     10.417008      8.801180
  Au      5.264641     10.817694      8.153877
  Au      9.891122     10.357922      6.830094
  Au      7.009136     10.149795      6.118230
  Au      6.397822      7.740037      4.900166
  Au      9.107478      8.557025      4.926302
  Au     10.328184      7.629064      7.339736
  Au      8.608353      5.924335      5.485826
  Au      6.180460      5.584389      6.756298
  Au      6.085766      8.985658     10.088923
  Au      8.747498      5.545453      8.276660
  Au      6.216509      6.371543      9.367488
  Au      8.713503      7.906071      9.771965
  Fe      7.710011      7.856109      7.296871
15
Coordinates from ORCA-job pbe E -3165.074679062453
  Au      5.079495      8.166664      7.457140
  Au      8.045189     10.421572      8.792671
  Au      5.259977     10.821690      8.159825
  Au      9.893326     10.353423      6.833710
  Au      7.005036     10.157372      6.122367
  Au      6.399615      7.747196      4.901060
  Au      9.106469      8.545296      4.939507
  Au     10.335630      7.626384      7.335828
  Au      8.604061      5.907322      5.487064
  Au      6.176389      5.580947      6.744111
  Au      6.092892      8.988782     10.088739
  Au      8.762163      5.553708      8.276857
  Au      6.217433      6.373811      9.352212
  Au      8.716884      7.908129      9.778295
  Fe      7.708705      7.859834      7.299123
15
Coordinates from ORCA-job pbe E -3165.074793250374
  Au      5.075267      8.164393      7.456331
  Au      8.035301     10.428323      8.784293
  Au      5.250280     10.816722      8.164377
  Au      9.900463     10.349395      6.839694
  Au      7.005220     10.166767      6.125257
  Au      6.401907      7.754173      4.904123
  Au      9.099669      8.533716      4.946519
  Au     10.339195      7.624286      7.332400
  Au      8.602023      5.892690      5.491226
  Au      6.169637      5.580706      6.731803
  Au      6.102484      8.989493     10.088926
  Au      8.768533      5.557480      8.278876
  Au      6.224887      6.377908      9.337440
  Au      8.720870      7.911688      9.784789
  Fe      7.707528      7.864389      7.302453
15
Coordinates from ORCA-job pbe E -3165.074873727527
  Au      5.073375      8.162528      7.453204
  Au      8.029333     10.434388      8.775002
  Au      5.238463     10.808137      8.165432
  Au      9.907788     10.340699      6.845082
  Au      7.008759     10.174124      6.125915
  Au      6.401710      7.760279      4.905293
  Au      9.092997      8.530565      4.952458
  Au     10.337618      7.622740      7.329567
  Au      8.602109      5.884508      5.498621
  Au      6.161438      5.581421      6.720974
  Au      6.111320      8.988949     10.091809
  Au      8.769413      5.557912      8.282156
  Au      6.237093      6.380855      9.327265
  Au      8.725218      7.915811      9.789192
  Fe      7.706630      7.869213      7.306538
15
Coordinates from ORCA-job pbe E -3165.074930034792
  Au      5.072125      8.159344      7.450405
  Au      8.026045     10.438536      8.768507
  Au      5.228508     10.796397      8.164273
  Au      9.917868     10.334080      6.849765
  Au      7.011495     10.179132      6.124667
  Au      6.400669      7.764087      4.904958
  Au      9.088356      8.531436      4.950782
  Au     10.334821      7.617713      7.329323
  Au      8.601187      5.886708      5.507553
  Au      6.153570      5.584145      6.714274
  Au      6.117290      8.987297     10.094626
  Au      8.767865      5.556015      8.286973
  Au      6.249836      6.383760      9.320898
  Au      8.728132      7.920133      9.790348
  Fe      7.705494      7.873348      7.311156
15
Coordinates from ORCA-job pbe E -3165.074981047593
  Au      5.068577      8.154109      7.448278
  Au      8.025791     10.440258      8.761850
  Au      5.222487     10.785360      8.160917
  Au      9.926709     10.324647      6.853781
  Au      7.012584     10.180292      6.121569
  Au      6.400809      7.768470      4.903455
  Au      9.084886      8.538116      4.950163
  Au     10.332323      7.612923      7.327679
  Au      8.599949      5.895220      5.515247
  Au      6.145136      5.586339      6.709129
  Au      6.120255      8.987610     10.097866
  Au      8.768256      5.550412      8.293867
  Au      6.261038      6.385680      9.318083
  Au      8.730459      7.925052      9.790217
  Fe      7.704004      7.877644      7.316406
15
Coordinates from ORCA-job pbe E -3165.075039183197
  Au      5.060988      8.143508      7.448079
  Au      8.026886     10.440335      8.755871
  Au      5.219447     10.774314      8.156087
  Au      9.939443     10.314866      6.859851
  Au      7.010246     10.180815      6.116030
  Au      6.401869      7.771674      4.900613
  Au      9.083155      8.550318      4.946234
  Au     10.330699      7.602858      7.324010
  Au      8.595530      5.907922      5.526577
  Au      6.136788      5.590652      6.704679
  Au      6.120645      8.988527     10.100655
  Au      8.771818      5.545539      8.302276
  Au      6.273084      6.388335      9.315232
  Au      8.731523      7.930163      9.788759
  Fe      7.701143      7.882304      7.323554
15
Coordinates from ORCA-job pbe E -3165.075097880914
  Au      5.049778      8.131170      7.450380
  Au      8.029012     10.438586      8.750582
  Au      5.221895     10.764675      8.149261
  Au      9.952336     10.304453      6.869295
  Au      7.005386     10.180897      6.108960
  Au      6.405872      7.774262      4.897179
  Au      9.078948      8.563944      4.944273
  Au     10.330750      7.593171      7.314317
  Au      8.593670      5.922393      5.534821
  Au      6.126619      5.593578      6.700203
  Au      6.118253      8.992430     10.101925
  Au      8.778577      5.540095      8.312458
  Au      6.283089      6.390717      9.315220
  Au      8.731864      7.934619      9.788304
  Fe      7.697215      7.887139      7.331329
15
Coordinates from ORCA-job pbe E -3165.075162083089
  Au      5.035948      8.116921      7.455444
  Au      8.030825     10.435803      8.746687
  Au      5.226127     10.757039      8.140614
  Au      9.968296     10.293784      6.883067
  Au      6.999345     10.182585      6.099256
  Au      6.410134      7.774375      4.895639
  Au      9.073434      8.581671      4.943004
  Au     10.332088      7.582085      7.297047
  Au      8.591074      5.931454      5.545265
  Au      6.118611      5.598633      6.694444
  Au      6.113958      8.996832     10.101405
  Au      8.786868      5.538384      8.322395
  Au      6.293663      6.393003      9.314574
  Au      8.730949      7.937677      9.789981
  Fe      7.691943      7.891884      7.339685
15
Coordinates from ORCA-job pbe E -3165.075240100734
  Au      5.021013      8.103193      7.464105
  Au      8.032895     10.431439      8.744411
  Au      5.233203     10.751527      8.128010
  Au      9.986514     10.283317      6.903239
  Au      6.994774     10.187339      6.087088
  Au      6.414258      7.770204      4.895243
  Au      9.062187      8.601310      4.943143
  Au     10.333471      7.570706      7.270499
  Au      8.593693      5.939069      5.553805
  Au      6.109911      5.603754      6.688882
  Au      6.107175      9.001567     10.097967
  Au      8.795807      5.539598      8.333208
  Au      6.304597      6.393934      9.316787
  Au      8.728392      7.938963      9.794266
  Fe      7.685372      7.896210      7.347853
15
Coordinates from ORCA-job pbe E -3165.075310917642
  Au      5.010972      8.096492      7.474733
  Au      8.033827     10.426202      8.744533
  Au      5.238489     10.751333      8.115079
  Au     10.002510     10.275838      6.922193
  Au      6.994413     10.193453      6.075747
  Au      6.415881      7.760935      4.898717
  Au      9.050250      8.619141      4.944822
  Au     10.335709      7.563663      7.242858
  Au      8.596794      5.940765      5.559152
  Au      6.106982      5.608505      6.685751
  Au      6.099518      9.003622     10.091768
  Au      8.801870      5.543883      8.339714
  Au      6.312029      6.391787      9.320328
  Au      8.724336      7.937667      9.800649
  Fe      7.679684      7.898843      7.352463
15
Coordinates from ORCA-job pbe E -3165.075355580327
  Au      5.008088      8.095569      7.483540
  Au      8.033096     10.422126      8.742997
  Au      5.238808     10.753730      8.104869
  Au     10.013193     10.271380      6.934845
  Au      6.997114     10.199017      6.069358
  Au      6.416119      7.754001      4.902581
  Au      9.040978      8.629692      4.946214
  Au     10.337258      7.559934      7.225964
  Au      8.600368      5.941616      5.561393
  Au      6.104972      5.610215      6.687631
  Au      6.094982      9.002290     10.085459
  Au      8.803779      5.548033      8.340919
  Au      6.317351      6.387715      9.322909
  Au      8.720958      7.935805      9.805723
  Fe      7.676200      7.901006      7.354106
15
Coordinates from ORCA-job pbe E -3165.075391061462
  Au      5.009572      8.097818      7.491349
  Au      8.031048     10.418323      8.739704
  Au      5.235993     10.757666      8.096962
  Au     10.021174     10.268627      6.941675
  Au      7.000126     10.203557      6.066285
  Au      6.415365      7.749523      4.906972
  Au      9.037143      8.635910      4.947109
  Au     10.339270      7.558596      7.217433
  Au      8.600002      5.943883      5.561647
  Au      6.105076      5.609435      6.691762
  Au      6.091648      8.999475     10.078836
  Au      8.803732      5.549857      8.339224
  Au      6.320993      6.381568      9.326184
  Au      8.717955      7.934452      9.809488
  Fe      7.674165      7.903439      7.353876
15
Coordinates from ORCA-job pbe E -3165.075423598500
  Au      5.010483      8.095006      7.500059
  Au      8.028545     10.413854      8.731364
  Au      5.230978     10.758908      8.086890
  Au     10.033602     10.261831      6.949743
  Au      7.002394     10.208454      6.061313
  Au      6.414909      7.750363      4.911499
  Au      9.033258      8.646144      4.947466
  Au     10.340241      7.552855      7.210466
  Au      8.598280      5.951490      5.564753
  Au      6.101034      5.609125      6.695978
  Au      6.088150      8.996635     10.071358
  Au      8.804974      5.548884      8.339621
  Au      6.330025      6.374268      9.329969
  Au      8.714975      7.935516      9.812236
  Fe      7.671416      7.908796      7.355791
15
Coordinates from ORCA-job pbe E -3165.075446737778
  Au      5.015249      8.095342      7.506497
  Au      8.026320     10.410319      8.724395
  Au      5.226616     10.764491      8.083416
  Au     10.038595     10.261666      6.948819
  Au      7.003137     10.213120      6.061190
  Au      6.412648      7.751259      4.915350
  Au      9.038057      8.647085      4.948231
  Au     10.341969      7.551302      7.214864
  Au      8.592702      5.956155      5.561075
  Au      6.101923      5.607610      6.701133
  Au      6.084616      8.993088     10.064106
  Au      8.805463      5.547369      8.337391
  Au      6.332405      6.365152      9.336065
  Au      8.712420      7.935737      9.812151
  Fe      7.671144      7.912434      7.353825
15
Coordinates from ORCA-job pbe E -3165.075465542382
  Au      5.012192      8.087624      7.510759
  Au      8.025873     10.408220      8.717381
  Au      5.224832     10.760471      8.079014
  Au     10.048488     10.255220      6.952754
  Au      7.001082     10.216134      6.055332
  Au      6.412731      7.757201      4.916321
  Au      9.036775      8.654085      4.949594
  Au     10.341683      7.545603      7.213443
  Au      8.589695      5.962309      5.565312
  Au      6.097713      5.610023      6.699809
  Au      6.081980      8.993423     10.060668
  Au      8.808367      5.543605      8.340522
  Au      6.340403      6.361591      9.339183
  Au      8.711808      7.938953      9.811718
  Fe      7.669641      7.917667      7.356698
15
Coordinates from ORCA-job pbe E -3165.075479542955
  Au      5.009983      8.082346      7.512465
  Au      8.026701     10.407909      8.714214
  Au      5.225934     10.758488      8.079185
  Au     10.051812     10.254577      6.952612
  Au      6.998399     10.219174      6.052003
  Au      6.412123      7.760793      4.915674
  Au      9.037064      8.654260      4.951822
  Au     10.341283      7.543943      7.217010
  Au      8.588635      5.962451      5.565754
  Au      6.096547      5.613243      6.698740
  Au      6.080713      8.993199     10.058782
  Au      8.809375      5.541753      8.341457
  Au      6.342817      6.359343      9.341794
  Au      8.711986      7.940236      9.809947
  Fe      7.669893      7.920412      7.357048
15
Coordinates from ORCA-job pbe E -3165.075490530863
  Au      5.006918      8.078023      7.516055
  Au      8.027577     10.407226      8.711078
  Au      5.227749     10.756431      8.077886
  Au     10.056761     10.254255      6.953748
  Au      6.995716     10.223811      6.046977
  Au      6.411180      7.762734      4.915769
  Au      9.035852      8.654544      4.955568
  Au     10.341124      7.543712      7.219538
  Au      8.588120      5.961743      5.566319
  Au      6.096457      5.616849      6.698016
  Au      6.079582      8.991888     10.055422
  Au      8.808859      5.540332      8.341176
  Au      6.345269      6.355909      9.345400
  Au      8.711957      7.940728      9.808746
  Fe      7.670143      7.923944      7.356809
15
Coordinates from ORCA-job pbe E -3165.075497392371
  Au      5.004643      8.075685      7.519082
  Au      8.028292     10.406999      8.708737
  Au      5.228992     10.755188      8.075899
  Au     10.060494     10.254965      6.955001
  Au      6.994400     10.227613      6.042848
  Au      6.409974      7.762887      4.916613
  Au      9.034246      8.654794      4.958615
  Au     10.340568      7.544341      7.222111
  Au      8.589138      5.960989      5.566461
  Au      6.096662      5.619170      6.698749
  Au      6.080242      8.989695     10.052835
  Au      8.806408      5.539510      8.339547
  Au      6.346562      6.353004      9.347923
  Au      8.712090      7.940453      9.808084
  Fe      7.670552      7.926836      7.356002
15
Coordinates from ORCA-job pbe E -3165.075502177469
  Au      5.002487      8.074550      7.521569
  Au      8.028796     10.406945      8.706833
  Au      5.229732     10.753677      8.073621
  Au     10.063878     10.255528      6.956286
  Au      6.993941     10.229984      6.039420
  Au      6.408845      7.762087      4.918164
  Au      9.033000      8.655821      4.960701
  Au     10.339804      7.545298      7.224345
  Au      8.590010      5.961634      5.566398
  Au      6.097362      5.619774      6.699877
  Au      6.082131      8.987785     10.051113
  Au      8.803257      5.538722      8.337858
  Au      6.346747      6.350988      9.349509
  Au      8.712396      7.939946      9.807761
  Fe      7.670876      7.929391      7.355052
15
Coordinates from ORCA-job pbe E -3165.075505617557
  Au      5.000655      8.073396      7.523093
  Au      8.029216     10.407200      8.705155
  Au      5.229936     10.752032      8.071839
  Au     10.066597     10.255828      6.957294
  Au      6.993968     10.231064      6.037219
  Au      6.407845      7.761086      4.919853
  Au      9.032600      8.657418      4.961536
  Au     10.338717      7.545739      7.226516
  Au      8.590799      5.963406      5.566070
  Au      6.097967      5.619016      6.701126
  Au      6.084795      8.986739     10.050525
  Au      8.800367      5.538153      8.336719
  Au      6.345950      6.350211      9.349927
  Au      8.712844      7.939381      9.807432
  Fe      7.671007      7.931462      7.354202
15
Coordinates from ORCA-job pbe E -3165.075508265595
  Au      4.998885      8.071763      7.524262
  Au      8.029725     10.407588      8.703418
  Au      5.229712     10.750014      8.070629
  Au     10.069340     10.255712      6.958126
  Au      6.993939     10.231380      6.035710
  Au      6.407255      7.760364      4.921634
  Au      9.032831      8.659514      4.961684
  Au     10.337625      7.545743      7.228445
  Au      8.591027      5.965835      5.565542
  Au      6.098819      5.617185      6.701983
  Au      6.087617      8.986859     10.050616
  Au      8.798000      5.537598      8.336150
  Au      6.344295      6.350346      9.349831
  Au      8.713333      7.938797      9.807035
  Fe      7.670858      7.933432      7.353442
15
Coordinates from ORCA-job pbe E -3165.075510504783
  Au      4.997767      8.069814      7.524768
  Au      8.030328     10.408076      8.702077
  Au      5.229202     10.748210      8.070457
  Au     10.071403     10.255454      6.958463
  Au      6.993544     10.231373      6.035263
  Au      6.407004      7.760097      4.922704
  Au      9.033579      8.661066      4.961596
  Au     10.336678      7.545345      7.229804
  Au      8.591213      5.967701      5.564975
  Au      6.099743      5.615249      6.702283
  Au      6.089861      8.988034     10.051327
  Au      8.796384      5.537351      8.336011
  Au      6.342461      6.351263      9.349406
  Au      8.713654      7.938229      9.806481
  Fe      7.670445      7.934865      7.352893
