19
E=  -2035.39868262;c=0;m=3
Au      6.509906248924750      4.868507395159840      4.708236882548270
Au      8.876754900018391      5.623676793976190      9.593196616094559
Au      3.969984654557370      6.246098471325910      4.965374233901940
Au     10.195434393399941      8.138981175185600      9.385306942489940
Au      7.771064488202900      4.775153762466270      7.204362503547300
Au      8.593899833605191      6.658935607431700      5.237465946943520
Au     10.144333746630030      8.525975470095380      6.564652185231970
Au      8.349145281301171     10.040247495553400      8.345504049382701
Au      7.387929481989610      9.159546020475259      5.856391262867120
Au      6.206600420768830      7.577738921133000      3.880066980523070
Au      4.887648112111610      8.573133970530259      9.686664488152010
Au      3.070904964752860      9.686829158785679      7.885480960908020
Au      5.730518421220570     10.504099436843291      7.671641407901770
Au      3.656759046471360      6.962084337939410      7.687440611892600
Au      4.522950610845540      8.946585232477149      5.615991396915150
Au      6.055532413946170      6.110137094745960      9.038810397469719
Au      4.888797685458940      4.559887431214280      7.029989918966650
Au      7.514251879309210      8.127750958072280     10.342245559394341
Fe      8.211572476485671      7.383275886589260      7.830780074869260
