17
E=  -1788.51834795;c=0;m=3
Au      5.758197149108450      5.444526591302860      9.351029853549990
Au      3.949655753975780      7.227211025585350      8.072729506834840
Au      5.353576158623100      9.663198063420619      7.511388835307220
Au      5.950962974393520      8.238408548417279      9.860165763964821
Au      7.809612676906080     10.947666100632739      7.638734286001450
Au     12.397098628612790      9.637666989633621      7.391576769739020
Au     10.347640980294679     10.977991707044509      8.726088048348551
Au      8.313865110796231      6.684224203085480      9.371455403570421
Au     10.596251987871881      8.050596732622550      8.702809197364310
Au      8.419030514909011      9.495165849313890     10.032391230647770
Au      9.128016585444700      6.907863129628730      6.564879858877960
Au      9.951971371357590      9.590076820892710      6.167363337605870
Au      7.528547124003500      4.753343875613460      7.340877223231680
Au      6.934486157708720      6.173896421194600      4.999326345900790
Au      7.344644871879800      9.001460842186050      5.552838389420300
Au      4.759480917610660      7.831474216683890      5.415100614224900
Cr      6.453788256503480      7.154919012741650      7.393430585410180
