17
Coordinates from ORCA-job pbe E -3217.493580697633
  Au      5.758197      5.444527      9.351030
  Au      3.949656      7.227211      8.072730
  Au      5.353576      9.663198      7.511389
  Au      5.950963      8.238409      9.860166
  Au      7.809613     10.947666      7.638734
  Au     12.397099      9.637667      7.391577
  Au     10.347641     10.977992      8.726088
  Au      8.313865      6.684224      9.371455
  Au     10.596252      8.050597      8.702809
  Au      8.419031      9.495166     10.032391
  Au      9.128017      6.907863      6.564880
  Au      9.951971      9.590077      6.167363
  Au      7.528547      4.753344      7.340877
  Au      6.934486      6.173896      4.999326
  Au      7.344645      9.001461      5.552838
  Au      4.759481      7.831474      5.415101
  Cr      6.453788      7.154919      7.393431
17
Coordinates from ORCA-job pbe E -3217.496375601308
  Au      5.775212      5.449211      9.374416
  Au      3.933437      7.230930      8.079168
  Au      5.370619      9.677776      7.514210
  Au      5.968131      8.251635      9.865098
  Au      7.807869     10.917066      7.641440
  Au     12.364243      9.621232      7.390043
  Au     10.315708     10.949175      8.716655
  Au      8.323109      6.695910      9.371637
  Au     10.565830      8.046530      8.692623
  Au      8.409497      9.482331     10.005931
  Au      9.135028      6.927321      6.574749
  Au      9.926973      9.573152      6.178906
  Au      7.556578      4.742934      7.348951
  Au      6.954989      6.181609      4.977407
  Au      7.355492      9.009612      5.559690
  Au      4.767524      7.857034      5.404227
  Cr      6.466590      7.166233      7.397036
17
Coordinates from ORCA-job pbe E -3217.497237313729
  Au      5.791142      5.454014      9.391791
  Au      3.910831      7.220812      8.078994
  Au      5.346011      9.680577      7.520344
  Au      5.943821      8.253470      9.873167
  Au      7.803695     10.892755      7.643040
  Au     12.393387      9.610175      7.376334
  Au     10.317709     10.942982      8.712553
  Au      8.322922      6.697539      9.394976
  Au     10.556876      8.035758      8.685316
  Au      8.399008      9.471243      9.986118
  Au      9.146855      6.939840      6.578790
  Au      9.919174      9.560532      6.176333
  Au      7.579259      4.741387      7.357377
  Au      6.972044      6.192576      4.964719
  Au      7.347229      9.030592      5.552419
  Au      4.776655      7.877020      5.396456
  Cr      6.470209      7.178419      7.403458
17
Coordinates from ORCA-job pbe E -3217.497803866052
  Au      5.812243      5.468043      9.399371
  Au      3.909841      7.218854      8.078392
  Au      5.325704      9.681430      7.527308
  Au      5.922593      8.255496      9.877605
  Au      7.802192     10.852980      7.642868
  Au     12.369755      9.597448      7.375127
  Au     10.316016     10.920427      8.699603
  Au      8.326535      6.695227      9.422074
  Au     10.550656      8.041045      8.671141
  Au      8.388279      9.451811      9.952728
  Au      9.149940      6.934922      6.574340
  Au      9.919853      9.550729      6.188995
  Au      7.597315      4.758200      7.364074
  Au      6.989369      6.209899      4.969982
  Au      7.340189      9.053418      5.538895
  Au      4.796159      7.894296      5.398449
  Cr      6.480188      7.195466      7.411233
17
Coordinates from ORCA-job pbe E -3217.498137994517
  Au      5.813464      5.472526      9.400065
  Au      3.920694      7.226678      8.080472
  Au      5.325891      9.691103      7.527869
  Au      5.924377      8.259934      9.885386
  Au      7.784922     10.838493      7.634576
  Au     12.381039      9.610650      7.380416
  Au     10.310223     10.930896      8.707601
  Au      8.338701      6.681657      9.433286
  Au     10.553123      8.037385      8.673373
  Au      8.372241      9.434242      9.949391
  Au      9.149002      6.916120      6.562911
  Au      9.920526      9.551734      6.183925
  Au      7.588820      4.759591      7.365230
  Au      6.981575      6.209604      4.973821
  Au      7.344403      9.058542      5.518675
  Au      4.798395      7.897462      5.401635
  Cr      6.489433      7.203071      7.413554
17
Coordinates from ORCA-job pbe E -3217.498400318949
  Au      5.803827      5.470364      9.394816
  Au      3.932570      7.222259      8.074794
  Au      5.303141      9.692626      7.530578
  Au      5.903244      8.257269      9.893919
  Au      7.792900     10.837950      7.632338
  Au     12.390102      9.618812      7.383112
  Au     10.313925     10.943089      8.714273
  Au      8.350588      6.667315      9.442741
  Au     10.559545      8.038155      8.667652
  Au      8.380012      9.433780      9.946468
  Au      9.157916      6.915708      6.560234
  Au      9.928737      9.548896      6.184128
  Au      7.574639      4.761106      7.368250
  Au      6.968010      6.209613      4.978965
  Au      7.349072      9.061568      5.498231
  Au      4.791463      7.890267      5.405254
  Cr      6.497138      7.210912      7.416432
17
Coordinates from ORCA-job pbe E -3217.498625013943
  Au      5.805833      5.479248      9.396523
  Au      3.940762      7.216998      8.069492
  Au      5.303349      9.695349      7.530225
  Au      5.904409      8.258132      9.897036
  Au      7.791004     10.828634      7.626673
  Au     12.384783      9.621060      7.385785
  Au     10.306640     10.944097      8.716621
  Au      8.350829      6.658810      9.442654
  Au     10.553903      8.035389      8.661375
  Au      8.377871      9.424300      9.941162
  Au      9.157391      6.916238      6.560725
  Au      9.925463      9.541241      6.186016
  Au      7.573950      4.769743      7.368713
  Au      6.969125      6.213900      4.986292
  Au      7.348033      9.057473      5.490974
  Au      4.794831      7.896932      5.411493
  Cr      6.508650      7.222143      7.420426
17
Coordinates from ORCA-job pbe E -3217.498951604518
  Au      5.799025      5.491995      9.405823
  Au      3.952001      7.202645      8.058124
  Au      5.310584      9.701890      7.530865
  Au      5.912124      8.262331      9.901616
  Au      7.793294     10.811226      7.615287
  Au     12.371577      9.637530      7.399254
  Au     10.293019     10.950748      8.723746
  Au      8.354282      6.639370      9.443291
  Au     10.549759      8.038023      8.653498
  Au      8.379376      9.407620      9.929233
  Au      9.158892      6.907328      6.555153
  Au      9.925865      9.535275      6.192223
  Au      7.563933      4.773085      7.368707
  Au      6.960581      6.213383      4.992574
  Au      7.347485      9.049389      5.472794
  Au      4.788770      7.910514      5.421062
  Cr      6.536260      7.247338      7.428932
17
Coordinates from ORCA-job pbe E -3217.499114963403
  Au      5.790564      5.496584      9.406945
  Au      3.962224      7.186855      8.046123
  Au      5.309023      9.700009      7.534115
  Au      5.909149      8.262689      9.900607
  Au      7.798820     10.805797      7.606186
  Au     12.368924      9.643930      7.404116
  Au     10.292878     10.958385      8.728183
  Au      8.355680      6.636173      9.444941
  Au     10.545126      8.036099      8.650956
  Au      8.385699      9.399192      9.925579
  Au      9.157674      6.902591      6.552624
  Au      9.922832      9.531038      6.192684
  Au      7.556460      4.776098      7.371202
  Au      6.953712      6.215875      4.996773
  Au      7.347798      9.049679      5.468545
  Au      4.781916      7.912023      5.427406
  Cr      6.558350      7.266672      7.435199
17
Coordinates from ORCA-job pbe E -3217.499217004562
  Au      5.793769      5.491265      9.404802
  Au      3.962437      7.184049      8.044469
  Au      5.307863      9.703488      7.538028
  Au      5.907533      8.267117      9.902900
  Au      7.796916     10.806320      7.607559
  Au     12.368745      9.645665      7.405528
  Au     10.292477     10.961648      8.729940
  Au      8.353668      6.631101      9.446413
  Au     10.547547      8.035077      8.647846
  Au      8.382861      9.400908      9.925664
  Au      9.163664      6.899558      6.549372
  Au      9.926321      9.527833      6.191854
  Au      7.550336      4.775621      7.373950
  Au      6.947279      6.217189      4.997318
  Au      7.344647      9.047816      5.464168
  Au      4.784199      7.909215      5.423624
  Cr      6.566566      7.275819      7.438750
17
Coordinates from ORCA-job pbe E -3217.499350853117
  Au      5.795507      5.486045      9.401293
  Au      3.968915      7.179073      8.040554
  Au      5.301769      9.705961      7.537873
  Au      5.902170      8.265488      9.907914
  Au      7.798979     10.806078      7.603885
  Au     12.367312      9.648910      7.408552
  Au     10.289594     10.963753      8.731363
  Au      8.355351      6.630540      9.451702
  Au     10.545514      8.031700      8.647289
  Au      8.384457      9.399589      9.925083
  Au      9.165043      6.889133      6.543227
  Au      9.925011      9.524077      6.189279
  Au      7.540673      4.780226      7.367600
  Au      6.941635      6.213180      5.006716
  Au      7.344647      9.051933      5.460263
  Au      4.785337      7.905506      5.421596
  Cr      6.584915      7.298497      7.447995
17
Coordinates from ORCA-job pbe E -3217.499413573422
  Au      5.798003      5.484058      9.397101
  Au      3.977999      7.183757      8.042261
  Au      5.297488      9.704909      7.536016
  Au      5.898000      8.260770      9.909199
  Au      7.794427     10.808309      7.603248
  Au     12.364830      9.648748      7.409736
  Au     10.287287     10.960254      8.729439
  Au      8.355563      6.634161      9.454344
  Au     10.544517      8.028250      8.647879
  Au      8.379197      9.400411      9.927729
  Au      9.174086      6.883450      6.538250
  Au      9.924177      9.521361      6.185944
  Au      7.533193      4.779450      7.359961
  Au      6.936852      6.206258      5.011123
  Au      7.345109      9.055580      5.461360
  Au      4.787973      7.902172      5.422187
  Cr      6.598126      7.317791      7.456408
17
Coordinates from ORCA-job pbe E -3217.499440476612
  Au      5.799241      5.479515      9.392527
  Au      3.977260      7.181735      8.041189
  Au      5.294376      9.705784      7.539697
  Au      5.893737      8.262989      9.909548
  Au      7.793045     10.812298      7.608122
  Au     12.365895      9.640690      7.404477
  Au     10.288581     10.951699      8.723897
  Au      8.353033      6.638807      9.455463
  Au     10.543342      8.025130      8.649383
  Au      8.376192      9.406612      9.929367
  Au      9.174644      6.881199      6.536992
  Au      9.921886      9.520410      6.182910
  Au      7.542239      4.780210      7.369250
  Au      6.942095      6.217140      5.004725
  Au      7.343653      9.058112      5.465724
  Au      4.789693      7.896330      5.420458
  Cr      6.597918      7.321029      7.458456
17
Coordinates from ORCA-job pbe E -3217.499463867554
  Au      5.797588      5.481769      9.392444
  Au      3.978414      7.176379      8.037429
  Au      5.290107      9.710439      7.537676
  Au      5.891634      8.262096      9.916324
  Au      7.790332     10.812388      7.608010
  Au     12.365592      9.636400      7.401846
  Au     10.288687     10.945872      8.720599
  Au      8.352447      6.636788      9.458160
  Au     10.542399      8.023526      8.648153
  Au      8.372916      9.406254      9.929996
  Au      9.176827      6.881018      6.536280
  Au      9.921212      9.518404      6.182060
  Au      7.547159      4.785120      7.366198
  Au      6.949172      6.218076      5.008295
  Au      7.341883      9.059276      5.463028
  Au      4.788859      7.897055      5.423430
  Cr      6.601601      7.328830      7.462257
17
Coordinates from ORCA-job pbe E -3217.499475864902
  Au      5.796487      5.484610      9.391943
  Au      3.980623      7.178580      8.038314
  Au      5.290821      9.710191      7.537149
  Au      5.892226      8.261395      9.916341
  Au      7.787988     10.810259      7.607570
  Au     12.366716      9.637032      7.401895
  Au     10.286372     10.941717      8.719177
  Au      8.353700      6.634455      9.457879
  Au     10.542335      8.024507      8.649494
  Au      8.370240      9.404250      9.928915
  Au      9.180630      6.882288      6.536016
  Au      9.920973      9.520328      6.182261
  Au      7.546562      4.786323      7.366728
  Au      6.948791      6.218340      5.009295
  Au      7.342294      9.058366      5.460544
  Au      4.788770      7.897654      5.426115
  Cr      6.601298      7.329394      7.462550
17
Coordinates from ORCA-job pbe E -3217.499480328968
  Au      5.796666      5.483892      9.391281
  Au      3.980265      7.179023      8.038679
  Au      5.289878      9.709831      7.537643
  Au      5.890847      8.261138      9.916667
  Au      7.786432     10.810182      7.607159
  Au     12.367127      9.634636      7.400101
  Au     10.286910     10.938025      8.716972
  Au      8.354326      6.634103      9.458488
  Au     10.542328      8.024846      8.651073
  Au      8.368427      9.403861      9.929260
  Au      9.182599      6.883635      6.536452
  Au      9.920329      9.521814      6.181664
  Au      7.547373      4.788202      7.367061
  Au      6.949915      6.219904      5.010459
  Au      7.342720      9.058883      5.459990
  Au      4.789488      7.896939      5.425764
  Cr      6.601199      7.330774      7.463471
17
Coordinates from ORCA-job pbe E -3217.499483066319
  Au      5.797457      5.483532      9.391293
  Au      3.979255      7.178695      8.038953
  Au      5.288920      9.709383      7.538246
  Au      5.889637      8.260775      9.916684
  Au      7.785603     10.810484      7.607504
  Au     12.368210      9.631309      7.397969
  Au     10.286963     10.934932      8.715736
  Au      8.355040      6.633505      9.458308
  Au     10.542358      8.025450      8.653493
  Au      8.366794      9.403913      9.929077
  Au      9.183760      6.885357      6.537035
  Au      9.920072      9.524335      6.180959
  Au      7.547893      4.790066      7.366927
  Au      6.950868      6.220330      5.011896
  Au      7.343030      9.058809      5.458739
  Au      4.789833      7.896584      5.425090
  Cr      6.601133      7.332231      7.464276
17
Coordinates from ORCA-job pbe E -3217.499484332129
  Au      5.797307      5.483055      9.391583
  Au      3.978372      7.177994      8.038326
  Au      5.288848      9.708976      7.538700
  Au      5.888735      8.260405      9.917036
  Au      7.785270     10.810436      7.606747
  Au     12.368103      9.629094      7.396142
  Au     10.287591     10.934695      8.715105
  Au      8.355469      6.632646      9.458288
  Au     10.542899      8.026308      8.654934
  Au      8.366344      9.403981      9.929150
  Au      9.183753      6.887248      6.538437
  Au      9.919745      9.525791      6.180485
  Au      7.547871      4.790223      7.366661
  Au      6.951336      6.221013      5.012244
  Au      7.343808      9.058309      5.458673
  Au      4.790440      7.897206      5.425005
  Cr      6.600936      7.332310      7.464670
