16
E=  -1689.88035361;c=0;m=5
Au      7.570368471809720      9.847734869917590      6.972232949238700
Au      7.675276195157600      4.560869945235690      7.388923704904320
Au      8.349825853556579      7.168109645020330      6.312664626414610
Au      4.290456197977600      6.869933841638170      9.480279938718700
Au      4.854856766988990      8.891649710960500      7.606106797986000
Au      6.132590092361450      8.323571477553999      5.120572502220960
Au      5.511993881369410      6.261937318869480      6.940066581805670
Au      5.975724442255430      8.989582975526361     10.411335392395820
Au      6.320511226230140      6.467318378496980     11.472189674171689
Au      8.716325234131279      7.707923969857800     10.451402890003781
Au      8.352791110927431     10.349207421441520      9.689979923531510
Au      5.825807034776010     11.216772867855751      8.760698444055951
Au      8.387749871327991      4.866553706767290     10.342567307636729
Au      9.950904181711230      8.768849125455610      8.053635022717719
Au      9.941002481199700      6.030666486561780      8.310818897302330
Mn      6.344822928219430      5.541065448841150      9.191437006895550
