11
Coordinates from ORCA-job pbe E -2621.725178280480
  Au      7.418062      6.466279      6.500566
  Au      8.320637      9.130765      6.916895
  Au      9.478636      7.473137      5.179751
  Au      6.445303      5.495495      8.895959
  Au      4.683336      6.413659      6.868991
  Au      5.982028     10.463385      7.549609
  Au      6.552358      7.358551     10.896012
  Au      7.768118      9.538381      9.596602
  Au      4.886952      9.456597     10.063723
  Au      3.676628      8.849259      7.608511
  Fe      6.123873      7.979585      8.313780
11
Coordinates from ORCA-job pbe E -2621.725450267585
  Au      7.425196      6.446363      6.491376
  Au      8.301266      9.134665      6.941122
  Au      9.487646      7.467638      5.154482
  Au      6.450292      5.485957      8.908533
  Au      4.672569      6.413806      6.859792
  Au      5.994599     10.470760      7.553180
  Au      6.552011      7.371638     10.890361
  Au      7.769425      9.550660      9.593397
  Au      4.865377      9.446500     10.075104
  Au      3.690658      8.856488      7.610023
  Fe      6.126891      7.980616      8.313028
11
Coordinates from ORCA-job pbe E -2621.725843284611
  Au      7.432098      6.432870      6.484422
  Au      8.297036      9.114096      6.941333
  Au      9.453949      7.473255      5.173609
  Au      6.456789      5.476180      8.910044
  Au      4.671207      6.409693      6.849561
  Au      6.000282     10.485491      7.558568
  Au      6.560872      7.385653     10.876739
  Au      7.770535      9.567295      9.598139
  Au      4.843963      9.433792     10.085491
  Au      3.713724      8.864600      7.604997
  Fe      6.135475      7.982166      8.307495
11
Coordinates from ORCA-job pbe E -2621.726042228604
  Au      7.409893      6.403188      6.492684
  Au      8.308830      9.095289      6.927245
  Au      9.460327      7.476112      5.163598
  Au      6.457232      5.473970      8.903281
  Au      4.677201      6.405552      6.848681
  Au      5.995613     10.507144      7.576414
  Au      6.571730      7.396625     10.863714
  Au      7.761101      9.591692      9.611834
  Au      4.818174      9.417330     10.099643
  Au      3.733284      8.871995      7.599540
  Fe      6.142547      7.986195      8.303765
11
Coordinates from ORCA-job pbe E -2621.726357558835
  Au      7.411306      6.400089      6.487774
  Au      8.293108      9.090965      6.939808
  Au      9.450702      7.457620      5.166995
  Au      6.460961      5.479739      8.898934
  Au      4.683572      6.409458      6.848531
  Au      6.004150     10.514795      7.594245
  Au      6.581867      7.392513     10.858293
  Au      7.749850      9.610085      9.605811
  Au      4.814890      9.409228     10.099914
  Au      3.737059      8.870809      7.590127
  Fe      6.148465      7.989791      8.299970
11
Coordinates from ORCA-job pbe E -2621.726489024525
  Au      7.417834      6.389275      6.476032
  Au      8.282841      9.081815      6.945373
  Au      9.452805      7.454091      5.165042
  Au      6.453605      5.479484      8.903401
  Au      4.677319      6.408704      6.855068
  Au      6.006094     10.524837      7.610182
  Au      6.595935      7.394169     10.854316
  Au      7.739163      9.627459      9.608460
  Au      4.811880      9.397492     10.097900
  Au      3.743397      8.876109      7.579519
  Fe      6.155056      7.991655      8.295106
11
Coordinates from ORCA-job pbe E -2621.726581924912
  Au      7.414897      6.377414      6.472041
  Au      8.271916      9.074873      6.951662
  Au      9.448823      7.451514      5.169448
  Au      6.446050      5.480918      8.899425
  Au      4.678960      6.405325      6.862677
  Au      6.005339     10.536795      7.618866
  Au      6.612701      7.396843     10.851703
  Au      7.735231      9.642138      9.614723
  Au      4.808196      9.380597     10.094248
  Au      3.749629      8.884082      7.567106
  Fe      6.164187      7.994593      8.288501
11
Coordinates from ORCA-job pbe E -2621.726665979499
  Au      7.410521      6.367566      6.471191
  Au      8.269821      9.075201      6.953441
  Au      9.446155      7.453572      5.173043
  Au      6.435391      5.483592      8.902153
  Au      4.674810      6.404542      6.873308
  Au      6.001741     10.546281      7.622736
  Au      6.628564      7.395336     10.851235
  Au      7.733846      9.651339      9.623305
  Au      4.808655      9.361459     10.085722
  Au      3.752786      8.889504      7.552790
  Fe      6.173639      7.996701      8.281474
11
Coordinates from ORCA-job pbe E -2621.726727372933
  Au      7.404312      6.364508      6.475140
  Au      8.273600      9.083638      6.953307
  Au      9.441678      7.457354      5.179350
  Au      6.426395      5.484303      8.906323
  Au      4.669007      6.403409      6.881544
  Au      5.999677     10.548902      7.621374
  Au      6.640829      7.394556     10.852777
  Au      7.735418      9.652349      9.626473
  Au      4.809432      9.343372     10.077099
  Au      3.754012      8.894889      7.541811
  Fe      6.181570      7.997813      8.275202
11
Coordinates from ORCA-job pbe E -2621.726778287528
  Au      7.398603      6.366019      6.481572
  Au      8.282090      9.098070      6.952031
  Au      9.435269      7.456730      5.183623
  Au      6.417485      5.484413      8.912597
  Au      4.661797      6.402358      6.889348
  Au      5.998754     10.549961      7.620263
  Au      6.652880      7.393828     10.853909
  Au      7.736684      9.651483      9.627909
  Au      4.806051      9.322885     10.070732
  Au      3.755938      8.899962      7.530012
  Fe      6.190379      7.999383      8.268404
11
Coordinates from ORCA-job pbe E -2621.726795859671
  Au      7.397140      6.367791      6.483327
  Au      8.283398      9.101424      6.951403
  Au      9.434837      7.456961      5.185847
  Au      6.415145      5.483497      8.914056
  Au      4.659149      6.401618      6.891053
  Au      6.000716     10.549274      7.620537
  Au      6.655657      7.394449     10.853129
  Au      7.737143      9.651513      9.624770
  Au      4.802799      9.317821     10.071520
  Au      3.757536      8.901159      7.528174
  Fe      6.192409      7.999584      8.266584
11
Coordinates from ORCA-job pbe E -2621.726813342699
  Au      7.396719      6.374823      6.488772
  Au      8.290218      9.112367      6.949747
  Au      9.431154      7.452295      5.184205
  Au      6.408243      5.482412      8.918086
  Au      4.655040      6.399178      6.896052
  Au      6.003337     10.548235      7.621091
  Au      6.660149      7.396551     10.851297
  Au      7.737611      9.650100      9.622018
  Au      4.793603      9.304342     10.073143
  Au      3.761880      8.903943      7.523443
  Fe      6.197975      8.000845      8.262544
11
Coordinates from ORCA-job pbe E -2621.726815110503
  Au      7.396169      6.375188      6.488072
  Au      8.288692      9.110661      6.948099
  Au      9.434346      7.454064      5.186696
  Au      6.407777      5.482279      8.917583
  Au      4.654014      6.399074      6.896669
  Au      6.003703     10.548130      7.621340
  Au      6.659820      7.396113     10.850687
  Au      7.738146      9.650179      9.620255
  Au      4.794281      9.305680     10.073637
  Au      3.761525      8.903098      7.524917
  Fe      6.197457      8.000626      8.262446
11
Coordinates from ORCA-job pbe E -2621.726815562799
  Au      7.396864      6.375312      6.488323
  Au      8.288566      9.110046      6.948014
  Au      9.434052      7.454374      5.185402
  Au      6.407517      5.482329      8.917534
  Au      4.654632      6.398719      6.896739
  Au      6.003734     10.548342      7.621372
  Au      6.658708      7.396158     10.850816
  Au      7.738378      9.649937      9.620915
  Au      4.794366      9.306435     10.073550
  Au      3.761590      8.902733      7.525188
  Fe      6.197522      8.000707      8.262548
