15
E=  -1570.54171615;c=0;m=5
Au      6.174940711213270      5.783328543785290      6.592458531452560
Au     10.148323834136271      7.128646722798040      7.720005708388420
Au      8.679153905231450      8.706410805236150      9.398364838906890
Au      8.822256566888029      4.761847421799690      6.679101257685880
Au      7.831556643076230      5.998997303448300      9.009750791860419
Au      6.347853010541410      7.819655283406540     10.779275697863580
Au      4.955030541786270      6.108186564769790      9.079197660983290
Au      6.282180979645570     10.373851394780679      9.510804996170110
Au     10.641295884099980      6.315049597100350      5.141901487854660
Au      6.352405128733310      8.418003528315269      5.446868832091050
Au      7.650313070171300     10.215656850418689      7.136876252891550
Au      9.159755587171960      8.638047663726390      5.437079764195830
Au      4.137410295401920      7.942179787395510      7.041041133019480
Au      7.871034103337660      6.221611119620170      4.405403623908150
Cr      6.346841498565360      8.167288603399131      8.181940452728080
