13
E=  -1382.51748180;c=0;m=3
Au     11.089388702034411      7.061522528416310     10.393635588235870
Au      8.309216024216900      6.807179607493560     10.940619999990419
Au      9.340068304516540      9.374735379868721     10.214701129281901
Au     11.312148145886971      8.909339291791850      8.183499984840569
Au     11.472279782710650      6.089326329271170      7.732146597266100
Au      7.994261477195680      3.160931128951250      8.094235267321640
Au      8.725469221641079      9.852750989683660      7.434100107855970
Au      9.008208036634510      5.203786732431600      6.584482645730620
Au      9.795248040873849      7.726928993321080      5.951014009358820
Au      9.740090473910300      4.712122157778310      9.578638584448299
Au      6.872967933047340      8.377690590688310      8.935317361338720
Au      7.010322522772650      5.672903307767840      8.644393363394720
Fe      9.173701964559150      7.287757462536340      8.430586320936319
