11
Coordinates from ORCA-job pbe E -2509.004351765109
  Au      8.222816      8.974664     10.825367
  Au      9.741147      7.443946      8.975360
  Au      6.694307      7.463809      8.966953
  Au      9.760796     10.490870      8.979709
  Au      6.714235     10.510698      8.971415
  Au      6.721517     10.514833      6.233753
  Au      9.768381     10.495165      6.241648
  Au      6.701598      7.467843      6.229072
  Au      9.748502      7.447985      6.236984
  Au      8.240053      8.984160      4.382789
  Mn      8.231320      8.979268      7.604177
11
Coordinates from ORCA-job pbe E -2509.005619345553
  Au      8.222730      8.974629     10.830485
  Au      9.762459      7.449035      8.972514
  Au      6.673127      7.469161      8.964344
  Au      9.782040     10.485552      8.977012
  Au      6.692998     10.505655      8.968910
  Au      6.700332     10.509644      6.236029
  Au      9.789440     10.489726      6.244351
  Au      6.680492      7.473300      6.231483
  Au      9.769674      7.453086      6.239824
  Au      8.240065      8.984169      4.378108
  Mn      8.231317      8.979283      7.604170
11
Coordinates from ORCA-job pbe E -2509.007550790948
  Au      8.222743      8.974613     10.809508
  Au      9.799902      7.467529      8.965683
  Au      6.635990      7.488037      8.957415
  Au      9.819268     10.466676      8.970257
  Au      6.655633     10.487325      8.961944
  Au      6.662838     10.491257      6.242693
  Au      9.826563     10.470834      6.251251
  Au      6.643268      7.492149      6.238212
  Au      9.807095      7.471386      6.246806
  Au      8.240047      8.984127      4.399260
  Mn      8.231324      8.979309      7.604199
11
Coordinates from ORCA-job pbe E -2509.008939647506
  Au      8.222772      8.974625     10.783213
  Au      9.834762      7.488141      8.962680
  Au      6.601434      7.509030      8.954140
  Au      9.853873     10.445680      8.967210
  Au      6.620834     10.466815      8.958551
  Au      6.627934     10.470722      6.245813
  Au      9.861140     10.449843      6.254443
  Au      6.608655      7.513106      6.241329
  Au      9.841958      7.491864      6.250007
  Au      8.239967      8.984088      4.425621
  Mn      8.231344      8.979326      7.604222
11
Coordinates from ORCA-job pbe E -2509.009805652494
  Au      8.222826      8.974647     10.757073
  Au      9.869584      7.509026      8.961031
  Au      6.566898      7.530363      8.952283
  Au      9.888408     10.424384      8.965514
  Au      6.586061     10.445955      8.956657
  Au      6.593075     10.449865      6.247460
  Au      9.895720     10.428522      6.256299
  Au      6.574081      7.534383      6.243048
  Au      9.876803      7.512707      6.251902
  Au      8.239862      8.984046      4.451725
  Mn      8.231355      8.979341      7.604238
11
Coordinates from ORCA-job pbe E -2509.010134502395
  Au      8.222933      8.974672     10.730964
  Au      9.905924      7.528619      8.959020
  Au      6.530786      7.550483      8.949945
  Au      9.924463     10.404341      8.963397
  Au      6.549723     10.426331      8.954265
  Au      6.556694     10.430248      6.249610
  Au      9.931890     10.408351      6.258585
  Au      6.537978      7.554447      6.245241
  Au      9.913192      7.532407      6.254177
  Au      8.239728      8.983990      4.477783
  Mn      8.231363      8.979352      7.604242
11
Coordinates from ORCA-job pbe E -2509.010169591052
  Au      8.222988      8.974687     10.726468
  Au      9.911160      7.528204      8.958705
  Au      6.525503      7.550198      8.949661
  Au      9.929682     10.404674      8.963092
  Au      6.544457     10.426679      8.954018
  Au      6.551455     10.430617      6.249851
  Au      9.937192     10.408620      6.258923
  Au      6.532729      7.554144      6.245507
  Au      9.918473      7.532089      6.254532
  Au      8.239683      8.983975      4.482237
  Mn      8.231352      8.979352      7.604237
11
Coordinates from ORCA-job pbe E -2509.010206031624
  Au      8.223106      8.974722     10.714894
  Au      9.918859      7.525583      8.956799
  Au      6.517670      7.547781      8.947711
  Au      9.937386     10.407173      8.961180
  Au      6.536672     10.429192      8.952101
  Au      6.543772     10.433153      6.251769
  Au      9.945038     10.410973      6.260862
  Au      6.525005      7.551709      6.247416
  Au      9.926252      7.529677      6.256467
  Au      8.239571      8.983932      4.493811
  Mn      8.231340      8.979346      7.604218
11
Coordinates from ORCA-job pbe E -2509.010209875641
  Au      8.223137      8.974738     10.710394
  Au      9.919786      7.524703      8.956209
  Au      6.516697      7.546936      8.947171
  Au      9.938321     10.408037      8.960603
  Au      6.535715     10.430046      8.951579
  Au      6.542848     10.434050      6.252316
  Au      9.946017     10.411844      6.261445
  Au      6.524061      7.550825      6.247963
  Au      9.927222      7.528802      6.257059
  Au      8.239534      8.983919      4.498274
  Mn      8.231334      8.979342      7.604214
11
Coordinates from ORCA-job pbe E -2509.010210567275
  Au      8.223142      8.974742     10.708606
  Au      9.919438      7.524330      8.956072
  Au      6.517022      7.546549      8.946978
  Au      9.937985     10.408418      8.960451
  Au      6.536043     10.430427      8.951372
  Au      6.543204     10.434449      6.252537
  Au      9.945682     10.412232      6.261583
  Au      6.524406      7.550424      6.248161
  Au      9.926890      7.528421      6.257178
  Au      8.239523      8.983912      4.500083
  Mn      8.231338      8.979337      7.604210
