15
E=  -1600.07928455;c=0;m=3
Au      7.102984744964860      5.986498169767680      5.658581316547360
Au      6.411831402526380      8.928699472141060      5.857770871768350
Au      8.829691578221009      8.008036467997499      4.735947151211500
Au      8.117399552003160      4.690417771123830      8.190695408627020
Au     10.386791631927570      8.812076417960290      7.107069740552730
Au      8.620291407184180     10.608772293876211      5.809926723704330
Au      9.908972671528970      6.111319552985560      6.501844652658380
Au      4.509634630280870      6.971665977347800      6.510650283069410
Au      9.234786527483051      7.118565526889200      9.085117504793139
Au      6.851337852430310      7.779877052027680     10.401452355735760
Au      5.166521133286330      8.995986048273959      8.391479000039640
Au      5.443721183141290      4.514344555057890      7.501299017343350
Au      4.557095192230910      6.399157697282310      9.455430055395681
Au      7.952919522239340      9.557248321086600      8.360571709309500
Fe      6.717423070551750      6.852798376182530      8.061925559243850
