15
Coordinates from ORCA-job pbe E -3165.064141653078
  Au      6.893901      6.073607      5.235136
  Au      6.390427      9.042317      5.916887
  Au      8.782370      7.978963      4.754194
  Au      8.034250      4.901217      8.989967
  Au     10.338076      8.728319      7.034526
  Au      8.716794     10.593166      5.623132
  Au      9.280199      6.089746      6.717051
  Au      4.563263      7.031920      6.499800
  Au      9.361147      7.402252      9.243223
  Au      6.850919      7.123866     10.408743
  Au      5.354121      8.896794      8.663472
  Au      5.799583      4.585600      7.374534
  Au      4.518908      6.289745      9.212955
  Au      7.968562      9.597579      8.189409
  Fe      6.958881      7.000371      7.766734
15
Coordinates from ORCA-job pbe E -3165.064146512238
  Au      6.894476      6.074521      5.235777
  Au      6.390499      9.041762      5.917489
  Au      8.783417      7.978239      4.754697
  Au      8.033257      4.900685      8.990103
  Au     10.338393      8.729339      7.034326
  Au      8.716446     10.592788      5.620706
  Au      9.280462      6.089016      6.717776
  Au      4.562736      7.033207      6.500389
  Au      9.360308      7.402762      9.242671
  Au      6.851395      7.123399     10.409214
  Au      5.354608      8.896621      8.665226
  Au      5.799429      4.585790      7.372787
  Au      4.518613      6.288413      9.212249
  Au      7.968289      9.598898      8.188772
  Fe      6.959074      7.000024      7.767579
