15
E=  -1580.65570745;c=0;m=6
Au      8.906847754276640      7.552660614487140      5.551522938529560
Au      8.027900430003770      9.887476565529729      8.800455483605750
Au     10.322468423537890      9.592090105482880      6.945446131955130
Au      7.978819048289100      7.533317159384490     10.510731245116551
Au     10.433297320616010      8.603756117465990      9.632886310077140
Au     11.309301867043921      6.977372365756700      7.313687849971900
Au      7.908856975711480     10.182207529434480      5.812398847809650
Au      6.015704312914800      8.141978822955590      5.889694631397230
Au      9.395899884535661      4.965586617234480      6.878965674620600
Au      6.962185980362500      5.532713269566080      5.664939092255460
Au      4.694111688078270      6.058483956078730      7.257977244965290
Au      5.753379024826690      8.071381865393951      8.880513879909570
Au      7.123633673651850      5.570745971289120      8.638968723386300
Au      5.648501531797850     10.458665141044580      7.464977112106510
Mn      9.433566344353570      6.523592888896070      8.804936274293400
