13
Coordinates from ORCA-job pbe E -2674.140903663208
  Au      5.859597      9.986106      7.932658
  Au     10.318353      7.472369      6.732348
  Au      8.001488      5.465706      6.413322
  Au      8.677071      9.472498      7.470085
  Au      6.360344      7.512118      6.990972
  Au      7.821258     11.124414      9.603980
  Au      8.894185      8.630873     10.407956
  Au      6.588928      6.624303     10.092100
  Au     10.541843      6.608072      9.750826
  Au      8.212243      4.645774      9.275496
  Au     10.521616      4.809174      7.595810
  Au      6.062274      9.201552     10.674750
  Cr      8.441955      7.043932      8.389558
13
Coordinates from ORCA-job pbe E -2674.143240139847
  Au      5.889451      9.965092      7.958991
  Au     10.321167      7.478606      6.722364
  Au      8.006887      5.450919      6.406375
  Au      8.668835      9.493215      7.474495
  Au      6.337460      7.526892      6.979412
  Au      7.821950     11.090195      9.593845
  Au      8.886974      8.650082     10.415984
  Au      6.568007      6.630377     10.112334
  Au     10.545753      6.608247      9.762314
  Au      8.217800      4.629710      9.272578
  Au     10.515152      4.823062      7.600616
  Au      6.088041      9.198711     10.638236
  Cr      8.433678      7.051781      8.392318
13
Coordinates from ORCA-job pbe E -2674.144787408283
  Au      5.898332      9.963037      7.977877
  Au     10.321383      7.482958      6.705840
  Au      8.016074      5.428005      6.399135
  Au      8.678048      9.518564      7.456408
  Au      6.309186      7.507722      6.937612
  Au      7.842248     11.116215      9.599454
  Au      8.900653      8.662357     10.442987
  Au      6.544492      6.591265     10.140230
  Au     10.547909      6.602842      9.778667
  Au      8.226717      4.606548      9.264867
  Au     10.498656      4.852122      7.610757
  Au      6.095153      9.208308     10.621523
  Cr      8.422304      7.056948      8.394506
13
Coordinates from ORCA-job pbe E -2674.146391580002
  Au      5.934987      9.903146      7.966029
  Au     10.307227      7.506245      6.692826
  Au      7.995294      5.437129      6.402946
  Au      8.698873      9.539507      7.439703
  Au      6.299631      7.500329      6.892473
  Au      7.861078     11.113018      9.597062
  Au      8.925146      8.672886     10.465009
  Au      6.540561      6.561062     10.174344
  Au     10.536368      6.614467      9.803984
  Au      8.205586      4.615218      9.268943
  Au     10.459658      4.897842      7.627230
  Au      6.131738      9.153999     10.596464
  Cr      8.405005      7.082043      8.402850
13
Coordinates from ORCA-job pbe E -2674.146851811959
  Au      5.982407      9.880244      7.969202
  Au     10.280113      7.535443      6.678411
  Au      7.974463      5.441256      6.402580
  Au      8.712081      9.553973      7.431343
  Au      6.300112      7.467514      6.842028
  Au      7.869312     11.103790      9.593877
  Au      8.940042      8.682723     10.477015
  Au      6.546420      6.507336     10.197828
  Au     10.512150      6.630520      9.835741
  Au      8.184034      4.618061      9.274435
  Au     10.441367      4.936111      7.639816
  Au      6.178443      9.137325     10.577306
  Cr      8.380211      7.102596      8.410282
13
Coordinates from ORCA-job pbe E -2674.147374168440
  Au      5.980995      9.871677      7.948749
  Au     10.273323      7.530976      6.668029
  Au      7.973959      5.432003      6.405367
  Au      8.730948      9.563731      7.429741
  Au      6.299753      7.477695      6.828912
  Au      7.851660     11.122814      9.600079
  Au      8.959321      8.691251     10.480801
  Au      6.548343      6.508597     10.214513
  Au     10.506569      6.620919      9.843380
  Au      8.182600      4.611514      9.267083
  Au     10.440348      4.934359      7.639094
  Au      6.178884      9.119036     10.590527
  Cr      8.374452      7.112318      8.413588
13
Coordinates from ORCA-job pbe E -2674.147821733056
  Au      5.983820      9.865622      7.945517
  Au     10.260091      7.515035      6.656899
  Au      7.976924      5.421751      6.413310
  Au      8.747519      9.578173      7.440501
  Au      6.305818      7.484772      6.815167
  Au      7.827457     11.134945      9.604789
  Au      8.974511      8.710336     10.476701
  Au      6.556565      6.506857     10.229430
  Au     10.494032      6.600972      9.846601
  Au      8.184066      4.606804      9.253960
  Au     10.443625      4.935676      7.639155
  Au      6.181487      9.112314     10.590216
  Cr      8.365241      7.123634      8.417618
13
Coordinates from ORCA-job pbe E -2674.148596192624
  Au      5.995231      9.860507      7.942239
  Au     10.221357      7.501006      6.640577
  Au      7.987634      5.401216      6.427527
  Au      8.770854      9.596353      7.463426
  Au      6.314048      7.489230      6.790026
  Au      7.807698     11.149542      9.610112
  Au      8.994520      8.739418     10.462452
  Au      6.568281      6.497121     10.252277
  Au     10.456372      6.579731      9.858911
  Au      8.191597      4.597205      9.228893
  Au     10.460827      4.935571      7.638191
  Au      6.193068      9.105714     10.589848
  Cr      8.339669      7.144277      8.425385
13
Coordinates from ORCA-job pbe E -2674.149366176412
  Au      6.008419      9.848582      7.939120
  Au     10.181458      7.487272      6.628376
  Au      7.992267      5.393667      6.440515
  Au      8.791395      9.615661      7.488426
  Au      6.327083      7.486580      6.763643
  Au      7.794769     11.163557      9.614869
  Au      9.011669      8.770273     10.447868
  Au      6.584619      6.480620     10.272007
  Au     10.417472      6.560242      9.867531
  Au      8.193559      4.597748      9.212784
  Au     10.480483      4.930210      7.635400
  Au      6.205943      9.094327     10.584959
  Cr      8.312019      7.168152      8.434364
13
Coordinates from ORCA-job pbe E -2674.150064047593
  Au      6.027540      9.831223      7.938321
  Au     10.135904      7.482594      6.622386
  Au      7.999883      5.391082      6.451581
  Au      8.813958      9.629384      7.506411
  Au      6.332685      7.480088      6.733149
  Au      7.792012     11.174662      9.618505
  Au      9.032145      8.792500     10.435649
  Au      6.593330      6.459841     10.293684
  Au     10.372262      6.551501      9.876329
  Au      8.198367      4.602071      9.201004
  Au     10.499313      4.928360      7.633822
  Au      6.225272      9.079174     10.574755
  Cr      8.278485      7.194412      8.444265
13
Coordinates from ORCA-job pbe E -2674.150662847058
  Au      6.049560      9.808954      7.930722
  Au     10.097543      7.476767      6.617434
  Au      8.003437      5.393105      6.458863
  Au      8.838203      9.648355      7.519354
  Au      6.332444      7.473404      6.697289
  Au      7.785400     11.186245      9.622061
  Au      9.056196      8.816666     10.430720
  Au      6.596978      6.435111     10.320570
  Au     10.334152      6.541280      9.882815
  Au      8.199606      4.608157      9.195359
  Au     10.515048      4.928340      7.632516
  Au      6.248029      9.058083     10.567280
  Cr      8.244560      7.222425      8.454880
13
Coordinates from ORCA-job pbe E -2674.151276050784
  Au      6.074321      9.785109      7.924089
  Au     10.062881      7.474428      6.619420
  Au      8.010278      5.398321      6.464670
  Au      8.863891      9.666239      7.525723
  Au      6.321630      7.464085      6.658514
  Au      7.782157     11.193590      9.624664
  Au      9.083499      8.836428     10.429951
  Au      6.589491      6.408495     10.349410
  Au     10.298342      6.537343      9.885030
  Au      8.204249      4.616798      9.192336
  Au     10.528871      4.928650      7.631653
  Au      6.274768      9.035682     10.558560
  Cr      8.206778      7.251723      8.465842
13
Coordinates from ORCA-job pbe E -2674.151939841889
  Au      6.099406      9.758836      7.915053
  Au     10.037695      7.471436      6.628119
  Au      8.016972      5.407061      6.470817
  Au      8.890539      9.686525      7.529701
  Au      6.303066      7.454105      6.621080
  Au      7.776916     11.197432      9.625856
  Au      9.113470      8.856770     10.432814
  Au      6.574877      6.380072     10.377743
  Au     10.271257      6.535799      9.880404
  Au      8.208376      4.628633      9.190771
  Au     10.538687      4.925657      7.629734
  Au      6.301382      9.012194     10.550327
  Cr      8.168512      7.282371      8.477444
13
Coordinates from ORCA-job pbe E -2674.152697672480
  Au      6.123110      9.732619      7.906465
  Au     10.026593      7.469855      6.648105
  Au      8.023021      5.419533      6.477420
  Au      8.917431      9.706986      7.529220
  Au      6.273741      7.439658      6.586436
  Au      7.773363     11.195654      9.626195
  Au      9.144061      8.875097     10.439019
  Au      6.548455      6.352678     10.402598
  Au     10.256626      6.542213      9.865422
  Au      8.212434      4.643866      9.190306
  Au     10.544427      4.917927      7.627308
  Au      6.327763      8.987202     10.542576
  Cr      8.130130      7.313604      8.488793
13
Coordinates from ORCA-job pbe E -2674.153525092526
  Au      6.144774      9.706321      7.897155
  Au     10.027626      7.466156      6.676886
  Au      8.027800      5.432912      6.487231
  Au      8.943231      9.727671      7.530708
  Au      6.239570      7.424988      6.561161
  Au      7.767315     11.191866      9.624929
  Au      9.173659      8.894289     10.445042
  Au      6.518317      6.325584     10.420225
  Au     10.253593      6.552003      9.840859
  Au      8.214223      4.661034      9.187483
  Au     10.546371      4.904766      7.623022
  Au      6.349937      8.964622     10.534776
  Cr      8.094740      7.344680      8.500386
13
Coordinates from ORCA-job pbe E -2674.154390153136
  Au      6.164007      9.683325      7.890076
  Au     10.037101      7.461991      6.712332
  Au      8.029662      5.446682      6.498127
  Au      8.967734      9.746305      7.534292
  Au      6.205593      7.405124      6.543966
  Au      7.760589     11.187526      9.624684
  Au      9.198696      8.913604     10.447928
  Au      6.486360      6.303204     10.428521
  Au     10.257777      6.566389      9.809022
  Au      8.214701      4.678634      9.183565
  Au     10.546032      4.886541      7.618221
  Au      6.370586      8.942102     10.527992
  Cr      8.062318      7.375464      8.511136
13
Coordinates from ORCA-job pbe E -2674.155290291713
  Au      6.182825      9.662147      7.882518
  Au     10.050803      7.457898      6.752304
  Au      8.029689      5.459146      6.509001
  Au      8.989912      9.761542      7.543745
  Au      6.174282      7.384290      6.539253
  Au      7.752163     11.185958      9.623687
  Au      9.220016      8.932450     10.445764
  Au      6.457853      6.280484     10.425303
  Au     10.266027      6.584449      9.773120
  Au      8.213020      4.694298      9.179496
  Au     10.543347      4.864403      7.611667
  Au      6.388006      8.924161     10.521804
  Cr      8.033211      7.405665      8.522201
13
Coordinates from ORCA-job pbe E -2674.156171205083
  Au      6.199864      9.646749      7.876218
  Au     10.063226      7.455285      6.791951
  Au      8.028436      5.470777      6.515776
  Au      9.011419      9.771723      7.558651
  Au      6.150402      7.358254      6.543608
  Au      7.742291     11.188565      9.625251
  Au      9.235851      8.950679     10.435805
  Au      6.434074      6.262753     10.410540
  Au     10.272453      6.604757      9.737034
  Au      8.212926      4.706970      9.178859
  Au     10.538401      4.837957      7.605009
  Au      6.404772      8.907180     10.518828
  Cr      8.007040      7.435243      8.532332
13
Coordinates from ORCA-job pbe E -2674.156853214379
  Au      6.216111      9.634945      7.865518
  Au     10.072485      7.456170      6.828920
  Au      8.033691      5.484422      6.515822
  Au      9.030551      9.777004      7.572109
  Au      6.124307      7.336361      6.552549
  Au      7.733511     11.191571      9.625132
  Au      9.251827      8.961973     10.425965
  Au      6.408797      6.243991     10.393784
  Au     10.276864      6.627161      9.705267
  Au      8.218866      4.717991      9.185557
  Au     10.531875      4.809247      7.596945
  Au      6.419237      8.895056     10.520321
  Cr      7.983032      7.460999      8.541972
13
Coordinates from ORCA-job pbe E -2674.157206966616
  Au      6.221561      9.636612      7.855022
  Au     10.089634      7.451476      6.853205
  Au      8.033128      5.491535      6.514400
  Au      9.050037      9.783709      7.595041
  Au      6.115848      7.312281      6.575079
  Au      7.706246     11.200871      9.630554
  Au      9.259581      8.981542     10.409084
  Au      6.396175      6.239924     10.362914
  Au     10.290653      6.640165      9.677424
  Au      8.224689      4.721996      9.190547
  Au     10.513679      4.770079      7.588196
  Au      6.425229      8.885795     10.530328
  Cr      7.974696      7.480906      8.548069
13
Coordinates from ORCA-job pbe E -2674.157267889190
  Au      6.245466      9.617604      7.842290
  Au     10.072991      7.454809      6.864190
  Au      8.053264      5.513496      6.514162
  Au      9.071164      9.794212      7.592425
  Au      6.084842      7.298284      6.560035
  Au      7.702091     11.195028      9.629743
  Au      9.283573      8.988341     10.414784
  Au      6.365109      6.219475     10.371977
  Au     10.273629      6.647317      9.670430
  Au      8.244995      4.742886      9.201903
  Au     10.509592      4.751844      7.582944
  Au      6.450247      8.864870     10.526710
  Cr      7.944192      7.508726      8.558270
13
Coordinates from ORCA-job pbe E -2674.157289823966
  Au      6.234580      9.631260      7.836669
  Au     10.116025      7.461749      6.885076
  Au      8.049570      5.516011      6.506467
  Au      9.060341      9.787314      7.583341
  Au      6.065720      7.294265      6.589136
  Au      7.706107     11.184569      9.623741
  Au      9.275188      8.975369     10.423662
  Au      6.346376      6.220917     10.345646
  Au     10.316419      6.669755      9.651236
  Au      8.240442      4.740271      9.212169
  Au     10.492146      4.746469      7.581390
  Au      6.436794      8.877324     10.538142
  Cr      7.961447      7.491620      8.553186
13
Coordinates from ORCA-job pbe E -2674.157243500919
  Au      6.231853      9.641067      7.837581
  Au     10.090293      7.454139      6.835720
  Au      8.040200      5.499283      6.508519
  Au      9.062827      9.789539      7.608043
  Au      6.108745      7.301356      6.600854
  Au      7.679473     11.199859      9.630222
  Au      9.270057      8.989651     10.403827
  Au      6.386658      6.230885     10.333363
  Au     10.297505      6.641417      9.690296
  Au      8.232743      4.726426      9.205274
  Au     10.492284      4.750768      7.582853
  Au      6.433165      8.882843     10.541442
  Cr      7.975352      7.489657      8.551869
13
Coordinates from ORCA-job pbe E -2674.157488872293
  Au      6.237994      9.631930      7.837100
  Au     10.091957      7.455830      6.857271
  Au      8.047021      5.513628      6.510796
  Au      9.068397      9.790050      7.597292
  Au      6.083924      7.291035      6.591719
  Au      7.694852     11.191088      9.629320
  Au      9.275368      8.987269     10.414125
  Au      6.358274      6.228146     10.342897
  Au     10.297198      6.648044      9.670437
  Au      8.245518      4.740076      9.207233
  Au     10.498799      4.749848      7.582420
  Au      6.440468      8.873507     10.534710
  Cr      7.961384      7.496440      8.554544
13
Coordinates from ORCA-job pbe E -2674.157523906382
  Au      6.240360      9.630674      7.836881
  Au     10.099011      7.455038      6.862818
  Au      8.052015      5.517758      6.511076
  Au      9.069830      9.792087      7.594793
  Au      6.070073      7.287440      6.600439
  Au      7.695841     11.188413      9.628218
  Au      9.279935      8.984365     10.415311
  Au      6.345968      6.223272     10.330633
  Au     10.303528      6.656793      9.665477
  Au      8.245058      4.746542      9.213591
  Au     10.496005      4.746671      7.582221
  Au      6.443965      8.869107     10.533671
  Cr      7.959567      7.498730      8.554735
13
Coordinates from ORCA-job pbe E -2674.157573882673
  Au      6.244294      9.629896      7.832339
  Au     10.104801      7.457947      6.864095
  Au      8.051130      5.523805      6.511540
  Au      9.072888      9.790136      7.595876
  Au      6.059072      7.278720      6.619009
  Au      7.696299     11.186523      9.627373
  Au      9.281110      8.983720     10.418278
  Au      6.330939      6.221658     10.314029
  Au     10.312612      6.659295      9.661385
  Au      8.249063      4.751280      9.217611
  Au     10.494255      4.745527      7.580538
  Au      6.443618      8.870093     10.531976
  Cr      7.961075      7.498290      8.555815
13
Coordinates from ORCA-job pbe E -2674.157696117342
  Au      6.252085      9.635076      7.824642
  Au     10.116404      7.458885      6.856675
  Au      8.050900      5.537832      6.516645
  Au      9.081339      9.788138      7.599216
  Au      6.028182      7.250603      6.675894
  Au      7.699098     11.181465      9.629273
  Au      9.283711      8.980971     10.421579
  Au      6.286281      6.223734     10.256009
  Au     10.332940      6.664119      9.656802
  Au      8.259432      4.768947      9.229703
  Au     10.495851      4.746992      7.580447
  Au      6.447096      8.864376     10.527561
  Cr      7.967836      7.495754      8.555417
13
Coordinates from ORCA-job pbe E -2674.157747499792
  Au      6.259866      9.634632      7.819843
  Au     10.119902      7.460165      6.847593
  Au      8.050788      5.545940      6.521915
  Au      9.089278      9.787889      7.600538
  Au      6.007072      7.232903      6.715584
  Au      7.699091     11.178875      9.631244
  Au      9.288514      8.980277     10.424461
  Au      6.257129      6.224207     10.215964
  Au     10.343330      6.665295      9.657950
  Au      8.263464      4.781060      9.237011
  Au     10.497335      4.752086      7.581278
  Au      6.451341      8.857812     10.521011
  Cr      7.974044      7.495749      8.555470
13
Coordinates from ORCA-job pbe E -2674.157793835659
  Au      6.268001      9.634872      7.814533
  Au     10.124099      7.460714      6.841734
  Au      8.049499      5.552467      6.526667
  Au      9.096669      9.789650      7.603448
  Au      5.986003      7.213016      6.757039
  Au      7.699431     11.177035      9.633088
  Au      9.293626      8.980429     10.425664
  Au      6.227957      6.224574     10.173458
  Au     10.352945      6.668712      9.657170
  Au      8.266146      4.791031      9.243241
  Au     10.498415      4.756972      7.582616
  Au      6.456280      8.850627     10.515918
  Cr      7.982083      7.496792      8.555287
13
Coordinates from ORCA-job pbe E -2674.157889559847
  Au      6.279986      9.632735      7.807211
  Au     10.127995      7.463772      6.833316
  Au      8.046183      5.559049      6.532232
  Au      9.108802      9.794165      7.606867
  Au      5.957290      7.184845      6.816517
  Au      7.698274     11.174905      9.636204
  Au      9.302201      8.984163     10.427488
  Au      6.190118      6.224806     10.112549
  Au     10.363537      6.672282      9.658352
  Au      8.266542      4.801820      9.251190
  Au     10.498303      4.764823      7.585212
  Au      6.464114      8.839308     10.507853
  Cr      7.997809      7.500219      8.554872
13
Coordinates from ORCA-job pbe E -2674.158049820987
  Au      6.291991      9.627276      7.801032
  Au     10.126574      7.467435      6.825567
  Au      8.040621      5.560735      6.536560
  Au      9.121309      9.804209      7.611196
  Au      5.933178      7.156168      6.873441
  Au      7.696675     11.175041      9.638963
  Au      9.313274      8.992718     10.428113
  Au      6.158482      6.224164     10.054000
  Au     10.365991      6.674164      9.663486
  Au      8.262541      4.805883      9.254883
  Au     10.497221      4.774515      7.588589
  Au      6.472911      8.827467     10.499850
  Cr      8.020385      7.507115      8.554182
13
Coordinates from ORCA-job pbe E -2674.158199412941
  Au      6.304165      9.619090      7.794799
  Au     10.124756      7.475011      6.821885
  Au      8.035844      5.561460      6.538463
  Au      9.133369      9.815719      7.612379
  Au      5.909076      7.127590      6.927596
  Au      7.696136     11.173366      9.640441
  Au      9.323908      9.003665     10.430346
  Au      6.129151      6.223560      9.997990
  Au     10.365261      6.677163      9.669736
  Au      8.257972      4.806840      9.257501
  Au     10.492467      4.781975      7.591484
  Au      6.483883      8.815047     10.493682
  Cr      8.045166      7.516405      8.553562
13
Coordinates from ORCA-job pbe E -2674.158238782316
  Au      6.317364      9.610575      7.785076
  Au     10.129654      7.479037      6.817744
  Au      8.030435      5.571006      6.541959
  Au      9.144581      9.823325      7.613455
  Au      5.884167      7.100278      6.988518
  Au      7.692842     11.167267      9.640162
  Au      9.333885      9.007847     10.434905
  Au      6.094899      6.225902      9.936552
  Au     10.374070      6.682300      9.671485
  Au      8.257918      4.816466      9.265061
  Au     10.486405      4.787932      7.592954
  Au      6.492882      8.801968     10.487996
  Cr      8.062054      7.522989      8.553995
13
Coordinates from ORCA-job pbe E -2674.157816859393
  Au      6.318341      9.586615      7.775888
  Au     10.133573      7.490918      6.842003
  Au      8.023548      5.572925      6.522539
  Au      9.142432      9.853773      7.599825
  Au      5.885431      7.090142      6.955836
  Au      7.689725     11.154732      9.622453
  Au      9.348055      9.031109     10.449311
  Au      6.100880      6.215395      9.964499
  Au     10.354217      6.682587      9.684562
  Au      8.250631      4.790981      9.253944
  Au     10.456115      4.778649      7.587334
  Au      6.506324      8.802726     10.514712
  Cr      8.091882      7.546339      8.556959
13
Coordinates from ORCA-job pbe E -2674.158280265465
  Au      6.316155      9.605862      7.781335
  Au     10.134008      7.482107      6.826845
  Au      8.031853      5.574953      6.536028
  Au      9.143690      9.827656      7.607777
  Au      5.883492      7.100922      6.970638
  Au      7.691444     11.161250      9.634308
  Au      9.335577      9.013285     10.438555
  Au      6.099780      6.221843      9.952274
  Au     10.370707      6.681395      9.672814
  Au      8.256890      4.813094      9.263792
  Au     10.477161      4.783066      7.590642
  Au      6.497251      8.802099     10.499328
  Cr      8.063148      7.529359      8.555526
13
Coordinates from ORCA-job pbe E -2674.158287887945
  Au      6.315258      9.605836      7.781787
  Au     10.136933      7.480554      6.826882
  Au      8.031442      5.578174      6.536920
  Au      9.143595      9.825734      7.608466
  Au      5.882583      7.099863      6.976016
  Au      7.690486     11.160311      9.633576
  Au      9.335809      9.010617     10.437578
  Au      6.097221      6.224156      9.946796
  Au     10.373627      6.681955      9.671739
  Au      8.258234      4.816085      9.264699
  Au     10.478024      4.782467      7.590239
  Au      6.495857      8.802665     10.499508
  Cr      8.062087      7.528474      8.555656
13
Coordinates from ORCA-job pbe E -2674.158292614264
  Au      6.313257      9.605633      7.782710
  Au     10.140009      7.479987      6.829188
  Au      8.033033      5.581143      6.536243
  Au      9.142423      9.823721      7.607279
  Au      5.881752      7.100010      6.975069
  Au      7.690846     11.159254      9.632237
  Au      9.334716      9.009759     10.437053
  Au      6.097982      6.225420      9.947161
  Au     10.374699      6.681361      9.670867
  Au      8.258930      4.817634      9.264743
  Au     10.477982      4.780433      7.589383
  Au      6.495111      8.804007     10.501999
  Cr      8.060415      7.528530      8.555931
13
Coordinates from ORCA-job pbe E -2674.158298576701
  Au      6.310333      9.602384      7.784809
  Au     10.146117      7.480162      6.833675
  Au      8.034969      5.587215      6.534276
  Au      9.140448      9.822375      7.603493
  Au      5.879023      7.097011      6.976038
  Au      7.691877     11.157227      9.628977
  Au      9.334439      9.009049     10.437183
  Au      6.097833      6.227805      9.944247
  Au     10.375558      6.680480      9.671579
  Au      8.258866      4.819406      9.264055
  Au     10.476004      4.777610      7.588168
  Au      6.495374      8.805516     10.506767
  Cr      8.060315      7.530650      8.556595
13
Coordinates from ORCA-job pbe E -2674.158301611090
  Au      6.307708      9.599697      7.787569
  Au     10.148821      7.479834      6.836196
  Au      8.037085      5.590173      6.532590
  Au      9.138110      9.822222      7.600650
  Au      5.878412      7.095835      6.973970
  Au      7.693151     11.157189      9.626868
  Au      9.334338      9.008910     10.436870
  Au      6.099440      6.229683      9.945018
  Au     10.373929      6.678490      9.673337
  Au      8.258323      4.819006      9.262063
  Au     10.475943      4.775999      7.587580
  Au      6.495466      8.807544     10.510156
  Cr      8.060428      7.532309      8.556996
13
Coordinates from ORCA-job pbe E -2674.158303532604
  Au      6.306002      9.597163      7.790382
  Au     10.150131      7.480303      6.837522
  Au      8.038368      5.591456      6.531521
  Au      9.136330      9.822454      7.597557
  Au      5.878180      7.093630      6.973569
  Au      7.694604     11.157672      9.625667
  Au      9.334677      9.008829     10.436538
  Au      6.100856      6.231500      9.944000
  Au     10.371657      6.676603      9.675774
  Au      8.256341      4.817886      9.259542
  Au     10.476260      4.776562      7.588093
  Au      6.496317      8.808820     10.512517
  Cr      8.061433      7.534013      8.557181
