15
E=  -1571.07509871;c=0;m=3
Au     10.231698489341619     10.710074693874960      6.343297280128060
Au     11.202146641105919      8.966575454811540      8.357117577313820
Au     11.433375656385040      6.249831228003150      7.990061497799460
Au      6.730335144201730      8.976064906817980      8.934171073067761
Au      9.030863896741341     10.558552755888449      9.007494644665259
Au      9.103391191893420      7.297146065780830      9.355946239887381
Au      6.190578802182760      8.399127224956921      6.143404234536360
Au      6.768030185858630      6.336504210760670      7.984555393281520
Au      9.013668313981579      4.778032278275830      7.697597284745250
Au      8.242411200251871      6.558491239031600      5.491467022881670
Au     10.829914767240361      8.011419813739620      5.647686773036050
Au      7.324315242025300     10.957985780726981      6.696206303298560
Au      8.463061515668659      9.269276307297240      4.629258479818480
Au     10.721712561930159      5.202813319989210      5.492536342008400
Cr      8.662461271191621      8.675096220044850      7.194825393531950
