11
E=  -1145.47445816;c=0;m=6
Au      7.492208181238840      5.491975042696800      5.464684521523370
Au      7.459332630988910      7.906337860209320      6.923508370169900
Au      8.446276367997530      5.106634382962090     10.503093535671150
Au      8.212869877357409      4.232807994425230      7.987264982771200
Au      6.776966189291180      3.000291346624950      5.921932783795500
Au      5.355674929251210      4.876864195184260      7.400267943502770
Au      8.310772263131810      7.710705020982450      4.393466605514650
Au      4.519626542910890      6.370037712835070      9.445313266919840
Au      6.524877884507390      6.917982771885590     11.414827502353150
Au      6.474424550596750      8.737503680975911      9.244201843919690
Mn      7.001501762728020      6.302563151218400      8.864532343858830
