11
Coordinates from ORCA-job pbe E -2509.027441994537
  Au      7.492208      5.491975      5.464685
  Au      7.459333      7.906338      6.923508
  Au      8.446276      5.106634     10.503094
  Au      8.212870      4.232808      7.987265
  Au      6.776966      3.000291      5.921933
  Au      5.355675      4.876864      7.400268
  Au      8.310772      7.710705      4.393467
  Au      4.519627      6.370038      9.445313
  Au      6.524878      6.917983     11.414828
  Au      6.474425      8.737504      9.244202
  Mn      7.001502      6.302563      8.864532
11
Coordinates from ORCA-job pbe E -2509.029814658183
  Au      7.494246      5.487494      5.458683
  Au      7.446642      7.948964      6.906622
  Au      8.467514      5.075167     10.518509
  Au      8.213211      4.207073      7.983422
  Au      6.781874      2.967603      5.926542
  Au      5.338524      4.879294      7.406757
  Au      8.333480      7.731130      4.329419
  Au      4.497256      6.330744      9.438387
  Au      6.501203      6.936359     11.446754
  Au      6.499628      8.779480      9.274173
  Mn      7.000952      6.310396      8.873826
11
Coordinates from ORCA-job pbe E -2509.031933841311
  Au      7.493848      5.512113      5.486513
  Au      7.427624      7.984509      6.877324
  Au      8.487040      5.032343     10.521399
  Au      8.202796      4.172225      7.982726
  Au      6.811078      2.987583      5.922970
  Au      5.338740      4.868440      7.386898
  Au      8.301396      7.695789      4.361458
  Au      4.477151      6.290433      9.440365
  Au      6.473128      6.967086     11.443207
  Au      6.558842      8.826202      9.269541
  Mn      7.002890      6.316981      8.870693
11
Coordinates from ORCA-job pbe E -2509.033731591443
  Au      7.487583      5.520469      5.535175
  Au      7.392314      8.041615      6.871330
  Au      8.487616      4.991593     10.507969
  Au      8.182805      4.131022      8.013086
  Au      6.838493      2.992767      5.930561
  Au      5.339163      4.848117      7.366472
  Au      8.290831      7.710991      4.360112
  Au      4.471955      6.244225      9.468116
  Au      6.444802      6.993841     11.395458
  Au      6.637314      8.855638      9.251256
  Mn      7.001654      6.323426      8.863557
11
Coordinates from ORCA-job pbe E -2509.035015242233
  Au      7.480316      5.553034      5.578122
  Au      7.376548      8.098889      6.853798
  Au      8.464793      4.964280     10.506223
  Au      8.172039      4.097935      8.046247
  Au      6.853766      2.974338      5.919732
  Au      5.331593      4.838092      7.379305
  Au      8.271237      7.711987      4.360870
  Au      4.485269      6.174374      9.466215
  Au      6.424521      7.025058     11.335600
  Au      6.708048      8.878934      9.262286
  Mn      7.006402      6.336782      8.854695
11
Coordinates from ORCA-job pbe E -2509.036255808152
  Au      7.470809      5.566621      5.626545
  Au      7.371222      8.144721      6.831027
  Au      8.430408      4.964242     10.526508
  Au      8.143258      4.064112      8.049371
  Au      6.874940      2.993514      5.898194
  Au      5.340511      4.812953      7.380841
  Au      8.259088      7.697269      4.336103
  Au      4.497498      6.115369      9.479231
  Au      6.415094      7.040783     11.310054
  Au      6.762026      8.902131      9.280751
  Mn      7.009679      6.351988      8.844470
11
Coordinates from ORCA-job pbe E -2509.037827595662
  Au      7.469912      5.589244      5.661658
  Au      7.372309      8.178662      6.812758
  Au      8.379068      4.985213     10.537974
  Au      8.109281      4.039034      8.061647
  Au      6.894749      2.989620      5.848904
  Au      5.348316      4.771213      7.375892
  Au      8.259722      7.687778      4.318752
  Au      4.506786      6.074352      9.519433
  Au      6.429502      7.048849     11.321786
  Au      6.799015      8.920911      9.275816
  Mn      7.005872      6.368827      8.828474
11
Coordinates from ORCA-job pbe E -2509.039257606736
  Au      7.462664      5.609298      5.703552
  Au      7.389889      8.202468      6.800492
  Au      8.308198      5.008974     10.532424
  Au      8.078638      4.032668      8.071792
  Au      6.908190      3.002157      5.819982
  Au      5.356936      4.734656      7.389587
  Au      8.257044      7.676372      4.307992
  Au      4.525099      6.020355      9.527631
  Au      6.462264      7.049402     11.345464
  Au      6.822633      8.929638      9.261956
  Mn      7.002975      6.387715      8.802224
11
Coordinates from ORCA-job pbe E -2509.040315418234
  Au      7.458352      5.630865      5.738568
  Au      7.404064      8.229081      6.785312
  Au      8.245483      5.017679     10.532051
  Au      8.055857      4.017214      8.090886
  Au      6.926466      3.013339      5.785326
  Au      5.356637      4.694650      7.398466
  Au      8.248147      7.669997      4.299826
  Au      4.550664      5.970184      9.558598
  Au      6.471391      7.070003     11.335516
  Au      6.858345      8.935989      9.262772
  Mn      6.999126      6.404702      8.775771
11
Coordinates from ORCA-job pbe E -2509.041304312819
  Au      7.452457      5.652522      5.771258
  Au      7.425793      8.256162      6.779934
  Au      8.191302      5.016553     10.534536
  Au      8.041906      3.998715      8.103891
  Au      6.940117      3.029305      5.759058
  Au      5.349365      4.654507      7.411410
  Au      8.233148      7.667161      4.295284
  Au      4.583614      5.914664      9.585753
  Au      6.462099      7.103413     11.321196
  Au      6.897660      8.940696      9.256976
  Mn      6.997070      6.420007      8.743796
11
Coordinates from ORCA-job pbe E -2509.042142785604
  Au      7.448480      5.667282      5.798069
  Au      7.452265      8.277266      6.772585
  Au      8.140160      5.011963     10.529144
  Au      8.041370      3.991129      8.110962
  Au      6.949783      3.046704      5.746798
  Au      5.335381      4.618556      7.420549
  Au      8.221896      7.660711      4.283578
  Au      4.618358      5.866250      9.616219
  Au      6.445752      7.132431     11.311518
  Au      6.929229      8.945646      9.267824
  Mn      6.991858      6.435764      8.705849
11
Coordinates from ORCA-job pbe E -2509.042718498864
  Au      7.443013      5.681469      5.820695
  Au      7.491666      8.296307      6.776595
  Au      8.089649      5.025897     10.538786
  Au      8.042268      3.979987      8.107602
  Au      6.949568      3.059990      5.731936
  Au      5.325294      4.581851      7.434712
  Au      8.207339      7.658091      4.274227
  Au      4.653537      5.823318      9.637994
  Au      6.432973      7.146896     11.308941
  Au      6.949733      8.951084      9.264484
  Mn      6.989491      6.448814      8.667121
11
Coordinates from ORCA-job pbe E -2509.043062588836
  Au      7.441584      5.689618      5.845629
  Au      7.523067      8.319712      6.773235
  Au      8.043562      5.025949     10.527676
  Au      8.046435      3.975675      8.115482
  Au      6.956686      3.071777      5.730205
  Au      5.316319      4.552354      7.435942
  Au      8.185520      7.649193      4.262460
  Au      4.679220      5.782279      9.655816
  Au      6.418276      7.166801     11.308906
  Au      6.981280      8.957942      9.281895
  Mn      6.982580      6.462403      8.625847
11
Coordinates from ORCA-job pbe E -2509.043172892346
  Au      7.444069      5.692723      5.852546
  Au      7.551323      8.327763      6.779168
  Au      8.021382      5.037620     10.529001
  Au      8.051294      3.970932      8.118440
  Au      6.958580      3.074513      5.724480
  Au      5.312985      4.538194      7.436892
  Au      8.165077      7.648236      4.255827
  Au      4.686732      5.771651      9.660730
  Au      6.414662      7.171813     11.315029
  Au      6.988800      8.955932      9.285198
  Mn      6.979627      6.464326      8.605783
11
Coordinates from ORCA-job pbe E -2509.043255871169
  Au      7.446318      5.693592      5.855566
  Au      7.565258      8.333757      6.782331
  Au      8.019253      5.046990     10.524879
  Au      8.051708      3.966170      8.120211
  Au      6.962579      3.072790      5.725023
  Au      5.310636      4.531413      7.436683
  Au      8.153081      7.651364      4.255005
  Au      4.685699      5.771881      9.664119
  Au      6.406112      7.173544     11.319601
  Au      6.998562      8.951549      9.287100
  Mn      6.975325      6.460655      8.592574
11
Coordinates from ORCA-job pbe E -2509.043387813810
  Au      7.445976      5.692324      5.852441
  Au      7.585716      8.339428      6.789528
  Au      8.026190      5.071880     10.514823
  Au      8.057586      3.964397      8.121018
  Au      6.968225      3.067809      5.730520
  Au      5.307117      4.527986      7.439430
  Au      8.139503      7.654859      4.254253
  Au      4.674483      5.783272      9.661007
  Au      6.395853      7.169884     11.330680
  Au      7.009111      8.933743      9.295843
  Mn      6.964772      6.448122      8.573549
11
Coordinates from ORCA-job pbe E -2509.043470366978
  Au      7.439913      5.691593      5.846656
  Au      7.589743      8.340687      6.792746
  Au      8.045225      5.096419     10.502464
  Au      8.060363      3.965873      8.120982
  Au      6.970079      3.065371      5.738154
  Au      5.304755      4.526491      7.444381
  Au      8.144045      7.659419      4.259005
  Au      4.664315      5.796198      9.659033
  Au      6.382853      7.164729     11.338070
  Au      7.020420      8.913416      9.302351
  Mn      6.952820      6.433506      8.559252
11
Coordinates from ORCA-job pbe E -2509.043496150205
  Au      7.433881      5.691863      5.841141
  Au      7.587561      8.338988      6.793182
  Au      8.053659      5.107507     10.499295
  Au      8.063877      3.970635      8.121392
  Au      6.967354      3.066178      5.740663
  Au      5.304263      4.526589      7.446897
  Au      8.152743      7.658934      4.260093
  Au      4.660885      5.799473      9.656216
  Au      6.379991      7.162792     11.341826
  Au      7.023397      8.903016      9.306842
  Mn      6.946921      6.427729      8.555547
11
Coordinates from ORCA-job pbe E -2509.043509666809
  Au      7.428978      5.693028      5.838092
  Au      7.581404      8.337240      6.791079
  Au      8.058705      5.111543     10.500297
  Au      8.064353      3.974655      8.122011
  Au      6.963824      3.067786      5.741197
  Au      5.304999      4.525943      7.447472
  Au      8.162203      7.658614      4.261219
  Au      4.661061      5.797953      9.655440
  Au      6.378424      7.161453     11.342912
  Au      7.026713      8.899391      9.306961
  Mn      6.943867      6.426097      8.556414
11
Coordinates from ORCA-job pbe E -2509.043518696365
  Au      7.426634      5.694024      5.836551
  Au      7.578384      8.336288      6.789353
  Au      8.058680      5.112329     10.503305
  Au      8.065309      3.978228      8.123054
  Au      6.962038      3.068880      5.740958
  Au      5.305164      4.524901      7.446147
  Au      8.165601      7.658091      4.260430
  Au      4.661564      5.794179      9.654983
  Au      6.378281      7.162011     11.342924
  Au      7.031145      8.898191      9.307692
  Mn      6.941731      6.426582      8.557697
11
Coordinates from ORCA-job pbe E -2509.043530380597
  Au      7.425411      5.694979      5.835739
  Au      7.577979      8.335853      6.787868
  Au      8.056311      5.112996     10.507443
  Au      8.066190      3.982747      8.124805
  Au      6.962019      3.069797      5.741065
  Au      5.305152      4.523214      7.443507
  Au      8.164136      7.658014      4.258222
  Au      4.661730      5.788397      9.654850
  Au      6.376329      7.162241     11.342601
  Au      7.040805      8.897634      9.308173
  Mn      6.938469      6.427830      8.558821
11
Coordinates from ORCA-job pbe E -2509.043546634755
  Au      7.425332      5.695887      5.835723
  Au      7.582556      8.335454      6.787057
  Au      8.050109      5.114244     10.512059
  Au      8.068180      3.989109      8.126977
  Au      6.965429      3.069962      5.742020
  Au      5.303956      4.520133      7.439565
  Au      8.155426      7.659269      4.254321
  Au      4.660380      5.779567      9.655338
  Au      6.372121      7.164176     11.341318
  Au      7.058722      8.896350      9.310153
  Mn      6.932321      6.429553      8.558562
11
Coordinates from ORCA-job pbe E -2509.043563817253
  Au      7.426257      5.696104      5.835807
  Au      7.592778      8.334557      6.788260
  Au      8.042517      5.116426     10.514871
  Au      8.070708      3.995766      8.128496
  Au      6.971947      3.069551      5.743728
  Au      5.302759      4.517247      7.436207
  Au      8.140437      7.661066      4.249222
  Au      4.656994      5.770749      9.656516
  Au      6.364955      7.165856     11.339386
  Au      7.080548      8.895194      9.312642
  Mn      6.924630      6.431187      8.557958
11
Coordinates from ORCA-job pbe E -2509.043579262669
  Au      7.426180      5.696228      5.836292
  Au      7.605307      8.332676      6.790563
  Au      8.035308      5.119523     10.514072
  Au      8.073144      4.000919      8.127986
  Au      6.979264      3.068344      5.745537
  Au      5.301825      4.513961      7.435385
  Au      8.126349      7.663791      4.245905
  Au      4.652543      5.762556      9.658947
  Au      6.357908      7.168869     11.336232
  Au      7.100209      8.894347      9.315525
  Mn      6.916495      6.432487      8.556650
11
Coordinates from ORCA-job pbe E -2509.043591852796
  Au      7.424169      5.695862      5.834916
  Au      7.616238      8.329569      6.793976
  Au      8.032498      5.122848     10.510470
  Au      8.075322      4.004464      8.125699
  Au      6.984151      3.067566      5.746102
  Au      5.302247      4.511628      7.437331
  Au      8.118744      7.665021      4.244226
  Au      4.647704      5.757141      9.662207
  Au      6.351637      7.170802     11.333133
  Au      7.112144      8.895220      9.317728
  Mn      6.909677      6.433583      8.557307
11
Coordinates from ORCA-job pbe E -2509.043601312882
  Au      7.419103      5.696319      5.834014
  Au      7.623771      8.326913      6.796492
  Au      8.031839      5.127088     10.505394
  Au      8.076420      4.006237      8.122222
  Au      6.985017      3.066892      5.745355
  Au      5.303713      4.507978      7.441519
  Au      8.120188      7.665619      4.245601
  Au      4.644781      5.751080      9.665935
  Au      6.348406      7.172961     11.329721
  Au      7.117347      8.897353      9.319197
  Mn      6.903945      6.435263      8.557646
11
Coordinates from ORCA-job pbe E -2509.043607627669
  Au      7.413724      5.696351      5.831253
  Au      7.625644      8.324305      6.798545
  Au      8.036569      5.129848     10.500926
  Au      8.077395      4.008058      8.118846
  Au      6.982301      3.066946      5.743493
  Au      5.304973      4.505271      7.445402
  Au      8.129039      7.664057      4.247953
  Au      4.642112      5.748144      9.669186
  Au      6.347528      7.173294     11.327826
  Au      7.115393      8.900470      9.319485
  Mn      6.899852      6.436958      8.560178
11
Coordinates from ORCA-job pbe E -2509.043611891901
  Au      7.408340      5.697129      5.830793
  Au      7.625998      8.324197      6.799178
  Au      8.040815      5.133467     10.497987
  Au      8.077481      4.009110      8.116497
  Au      6.977650      3.066987      5.741887
  Au      5.306125      4.501846      7.448378
  Au      8.139036      7.662151      4.251139
  Au      4.641555      5.744088      9.670810
  Au      6.348260      7.172713     11.326316
  Au      7.112661      8.902935      9.319437
  Mn      6.896610      6.439079      8.560672
11
Coordinates from ORCA-job pbe E -2509.043614414071
  Au      7.406100      5.697104      5.830188
  Au      7.624868      8.324102      6.799517
  Au      8.046358      5.135343     10.496453
  Au      8.077748      4.010724      8.115414
  Au      6.974364      3.066878      5.741187
  Au      5.305728      4.500017      7.449099
  Au      8.146059      7.660586      4.253338
  Au      4.639793      5.743317      9.671214
  Au      6.349531      7.171242     11.325871
  Au      7.110014      8.904085      9.319204
  Mn      6.893968      6.440304      8.561610
11
Coordinates from ORCA-job pbe E -2509.043616330517
  Au      7.405617      5.697053      5.831257
  Au      7.625696      8.325093      6.799858
  Au      8.050550      5.137461     10.495800
  Au      8.077472      4.011553      8.115388
  Au      6.972625      3.066703      5.741064
  Au      5.305213      4.498749      7.448909
  Au      8.148002      7.659396      4.254384
  Au      4.638091      5.742551      9.670412
  Au      6.349767      7.169350     11.325109
  Au      7.109911      8.904426      9.319408
  Mn      6.891586      6.441369      8.561504
