15
E=  -1600.18790322;c=0;m=3
Au      9.141863254171470      7.647619744498480     10.109492638971920
Au      7.155155935998860      5.566887610780550      9.756137283246691
Au      5.636905003197870      9.414675336174421      7.457341429837200
Au      3.726888858249170      7.891305177220600      6.048416508868640
Au      5.599621745967190      9.489672590898710      4.638519527790070
Au      8.196777714522311      9.884718114438339      8.525878492587569
Au      5.038795269613480      6.504127029063800      8.063259973752750
Au      6.317770667910100      8.281006613191069      9.940448604065599
Au      7.104323566089290      4.783744959566340      7.020322026746260
Au      8.122108549180590      9.135889226971029      5.741666289874060
Au     10.201913097476311      8.167841388014759      7.461915931106160
Au      8.983169981108430      6.387196030497280      5.605762738103790
Au      9.638547511493771      5.440444500840360      8.266792235820891
Au      6.221250521791940      6.817033705057520      5.288721174159130
Fe      7.679253633229240      7.321083112786760      7.796486005069250
