17
E=  -1817.83702146;c=0;m=3
Au      7.571818874040180      8.131611257717079      3.047511260116160
Au      8.796361630208789      6.056794257602240      4.433968867534510
Au      7.101448194439410     10.141924083490460      5.055217387446810
Au      9.594052384175070      8.814349511218770      4.934477946460150
Au      6.043434751902000      6.332015068439320      4.699311202606520
Au      4.973306527723120      8.886888881508121      3.646410353267490
Au     10.433043303736630      6.787080340554690      6.721991606065740
Au      9.100723267356910     10.578334147364000      7.049922046026220
Au      3.633311835127690      7.431160220988440      5.626954930188260
Au      7.880059517524510      5.781908669194850      7.068739281238590
Au      5.149001543102700      5.862040211928380      7.358206673348850
Au      4.497027020396720     10.188080642582561      6.082496951325070
Au      8.725194030485190      9.259016257388330      9.544855166423099
Au      6.780657479226400      7.302363674990120      9.151068195412851
Au      6.517949077004100     10.025204237769330      7.968653079241340
Au      4.254539638477570      8.411610584139780      8.259737751001760
Fe      8.429480335073009      8.212972143123549      7.253657422296500
