%pal nprocs 1 end 

!PBE def2-TZVP OPT UNO
!SLOWCONV

*xyz 0 3 
  Au  7.61552362704256      8.14708439645614      3.14483977895864
  Au  9.19017582013472      6.49539152826249      4.87076899785010
  Au  6.97181691031176     10.23160860409356      5.05174993518585
  Au  9.63427048158252      9.28623788235268      4.60065499320558
  Au  6.26394382951816      6.86552654612344      5.17402918193172
  Au  4.94882906170597      8.72521779335720      3.66858414625938
  Au  10.14669477484046      6.48502741683706      7.53041763266857
  Au  9.03459500139627     10.71719015229910      6.89085371047279
  Au  3.48686457019942      7.44810839423500      5.68140129783189
  Au  7.67956017719231      5.39664822680816      7.04742863957515
  Au  4.96449547034936      5.78447200378069      7.35824783216507
  Au  4.47158164831450     10.07628275381273      6.13556622860296
  Au  9.10727924465134      8.84798067043422      9.00502136721920
  Au  6.79228149399529      7.30947051617995      8.89882677164072
  Au  6.59388019013555      9.92438036372059      7.91563926730896
  Au  4.26663689719979      8.34261991435909      8.26693391677498
  Fe  8.31298021142976      8.12010702688752      6.66221642234809
*
