13
E=  -1353.62793583;c=0;m=3
Au     11.623303456104630      4.283153327535330      6.965706995349340
Au     10.934138927341920      6.922834965772830      6.385429820901020
Au      6.245124596165340      9.088157529442039      6.009621401682150
Au      8.863701225722080      4.705262474149270      6.330270039385680
Au      9.139389144654940      8.819802806264990      5.768986495431260
Au      7.164481050917130      6.556693010161320      5.477884265439520
Au      9.708815137089140      8.209363649631751      9.640816327617630
Au      7.859432095443070      9.566923242864929      8.266256122118341
Au      6.153677232321850      7.215871027339810      8.243937222759730
Au     10.595504973368580      5.776253947289750      9.102559092720730
Au      7.685014714445700      5.176445854845170      9.085735855860740
Au      9.596274076438240      3.195017329183900      8.648439302497041
Cr      8.628500829987530      7.055199125518780      7.567081848236850
