13
Coordinates from ORCA-job pbe E -2674.153676719145
  Au     11.623303      4.283153      6.965707
  Au     10.934139      6.922835      6.385430
  Au      6.245125      9.088158      6.009621
  Au      8.863701      4.705262      6.330270
  Au      9.139389      8.819803      5.768986
  Au      7.164481      6.556693      5.477884
  Au      9.708815      8.209364      9.640816
  Au      7.859432      9.566923      8.266256
  Au      6.153677      7.215871      8.243937
  Au     10.595505      5.776254      9.102559
  Au      7.685015      5.176446      9.085736
  Au      9.596274      3.195017      8.648439
  Cr      8.628501      7.055199      7.567082
13
Coordinates from ORCA-job pbe E -2674.155103041869
  Au     11.590626      4.306671      6.985409
  Au     10.954358      6.905229      6.371635
  Au      6.261019      9.083944      6.025472
  Au      8.877424      4.686440      6.334211
  Au      9.137500      8.831979      5.764697
  Au      7.157394      6.550342      5.466337
  Au      9.727137      8.215644      9.665584
  Au      7.851075      9.565895      8.255799
  Au      6.144099      7.222912      8.247248
  Au     10.582854      5.768786      9.083714
  Au      7.681687      5.147984      9.090520
  Au      9.600082      3.237629      8.635484
  Cr      8.632103      7.047524      7.566614
13
Coordinates from ORCA-job pbe E -2674.155979446311
  Au     11.608037      4.300958      6.980030
  Au     10.972511      6.918036      6.340338
  Au      6.281133      9.077255      6.044396
  Au      8.873589      4.669136      6.317603
  Au      9.136121      8.846567      5.762648
  Au      7.154465      6.538486      5.456895
  Au      9.734664      8.236843      9.685880
  Au      7.848006      9.564481      8.252045
  Au      6.134496      7.233285      8.252570
  Au     10.575959      5.785389      9.088580
  Au      7.647900      5.133218      9.102041
  Au      9.598137      3.221353      8.643602
  Cr      8.632338      7.045971      7.566098
13
Coordinates from ORCA-job pbe E -2674.156757070387
  Au     11.596103      4.320793      6.983099
  Au     10.973522      6.927961      6.310354
  Au      6.302674      9.057056      6.056377
  Au      8.868781      4.664881      6.307682
  Au      9.150076      8.842772      5.763040
  Au      7.163231      6.513007      5.453352
  Au      9.737839      8.251043      9.695159
  Au      7.870102      9.553695      8.272786
  Au      6.136031      7.224741      8.262910
  Au     10.554058      5.809867      9.081414
  Au      7.617513      5.125037      9.098295
  Au      9.589727      3.242648      8.640968
  Cr      8.637701      7.037479      7.567288
13
Coordinates from ORCA-job pbe E -2674.156978072286
  Au     11.590348      4.335513      6.991789
  Au     10.967991      6.930780      6.281454
  Au      6.320476      9.040629      6.066866
  Au      8.871216      4.653326      6.300673
  Au      9.157349      8.842598      5.765217
  Au      7.162454      6.503518      5.448475
  Au      9.745434      8.264972      9.708272
  Au      7.881743      9.551995      8.286654
  Au      6.137608      7.221354      8.270120
  Au     10.541290      5.821062      9.076769
  Au      7.590477      5.117227      9.085642
  Au      9.588733      3.259094      8.643492
  Cr      8.642237      7.028910      7.567301
13
Coordinates from ORCA-job pbe E -2674.157064901056
  Au     11.591165      4.344721      6.995170
  Au     10.963024      6.922978      6.266159
  Au      6.326032      9.035688      6.071067
  Au      8.871066      4.650713      6.296342
  Au      9.156600      8.846884      5.768405
  Au      7.164918      6.495108      5.447509
  Au      9.752775      8.268006      9.714677
  Au      7.884488      9.554799      8.292896
  Au      6.137669      7.226445      8.272422
  Au     10.536702      5.830049      9.079644
  Au      7.582089      5.106520      9.072203
  Au      9.585171      3.266348      8.649061
  Cr      8.645660      7.022719      7.567170
13
Coordinates from ORCA-job pbe E -2674.157171294871
  Au     11.594087      4.346295      7.002333
  Au     10.950096      6.912430      6.249647
  Au      6.328200      9.034643      6.074208
  Au      8.874869      4.645779      6.294158
  Au      9.152218      8.853151      5.774509
  Au      7.165180      6.491822      5.447676
  Au      9.755853      8.278249      9.717969
  Au      7.886338      9.559072      8.299290
  Au      6.138890      7.235780      8.273407
  Au     10.540226      5.831240      9.088475
  Au      7.573123      5.097877      9.049909
  Au      9.589176      3.268142      8.654100
  Cr      8.649101      7.016498      7.567043
13
Coordinates from ORCA-job pbe E -2674.157237939442
  Au     11.598610      4.346146      7.012431
  Au     10.929656      6.898071      6.230169
  Au      6.327926      9.037697      6.077331
  Au      8.882673      4.638445      6.294591
  Au      9.147370      8.859506      5.785615
  Au      7.164545      6.494046      5.450969
  Au      9.761672      8.281082      9.716355
  Au      7.883943      9.563362      8.301057
  Au      6.143899      7.247070      8.275581
  Au     10.544025      5.838443      9.103116
  Au      7.562615      5.089540      9.017878
  Au      9.596741      3.268451      8.660030
  Cr      8.653683      7.009120      7.567601
13
Coordinates from ORCA-job pbe E -2674.157266834353
  Au     11.600287      4.345371      7.013162
  Au     10.927519      6.895571      6.227225
  Au      6.324501      9.041229      6.075549
  Au      8.882312      4.639784      6.294920
  Au      9.147847      8.859826      5.787978
  Au      7.166742      6.494856      5.454808
  Au      9.759355      8.285387      9.712790
  Au      7.882820      9.563205      8.300490
  Au      6.145100      7.248407      8.276670
  Au     10.546937      5.835296      9.106234
  Au      7.561745      5.086410      9.013066
  Au      9.597129      3.267002      8.660724
  Cr      8.655064      7.008635      7.569108
13
Coordinates from ORCA-job pbe E -2674.157298536002
  Au     11.601500      4.346442      7.014242
  Au     10.927550      6.892267      6.221382
  Au      6.320935      9.044728      6.073039
  Au      8.882522      4.639657      6.295313
  Au      9.149272      8.860234      5.791790
  Au      7.169159      6.498393      5.460789
  Au      9.758456      8.288684      9.707798
  Au      7.880468      9.562236      8.298208
  Au      6.147310      7.248509      8.279021
  Au     10.547559      5.834295      9.108928
  Au      7.557245      5.081157      9.008668
  Au      9.597597      3.266557      8.661259
  Cr      8.657784      7.007819      7.572288
13
Coordinates from ORCA-job pbe E -2674.157332251699
  Au     11.602138      4.348075      7.017812
  Au     10.926044      6.888606      6.207647
  Au      6.315244      9.049654      6.069242
  Au      8.883644      4.638392      6.295744
  Au      9.152649      8.859555      5.798896
  Au      7.173454      6.504939      5.471806
  Au      9.760910      8.293983      9.700592
  Au      7.873827      9.561926      8.294010
  Au      6.151651      7.249980      8.282628
  Au     10.547174      5.834621      9.114327
  Au      7.548516      5.068579      8.998398
  Au      9.597750      3.267356      8.662372
  Cr      8.664358      7.005313      7.579250
13
Coordinates from ORCA-job pbe E -2674.157341611504
  Au     11.601890      4.351011      7.018491
  Au     10.926394      6.883035      6.201861
  Au      6.313934      9.050943      6.068092
  Au      8.884276      4.637578      6.295295
  Au      9.151107      8.860874      5.802405
  Au      7.175090      6.507744      5.475414
  Au      9.763766      8.296663      9.698188
  Au      7.872312      9.562360      8.292982
  Au      6.153774      7.247842      8.282641
  Au     10.546214      5.836091      9.117150
  Au      7.541381      5.065632      8.994274
  Au      9.598919      3.267747      8.662751
  Cr      8.668299      7.003459      7.583179
13
Coordinates from ORCA-job pbe E -2674.157353136673
  Au     11.601098      4.351271      7.019347
  Au     10.925983      6.884514      6.200300
  Au      6.313883      9.051079      6.068603
  Au      8.884269      4.637253      6.294869
  Au      9.150139      8.859090      5.802014
  Au      7.174703      6.508749      5.475465
  Au      9.766175      8.297602      9.697850
  Au      7.871871      9.562225      8.294005
  Au      6.153866      7.248235      8.280169
  Au     10.545642      5.836817      9.118508
  Au      7.541021      5.063303      8.993291
  Au      9.598342      3.268284      8.663143
  Cr      8.670367      7.002556      7.585162
13
Coordinates from ORCA-job pbe E -2674.157370248361
  Au     11.598999      4.351410      7.020213
  Au     10.925944      6.887612      6.201175
  Au      6.312956      9.053330      6.070064
  Au      8.882986      4.638573      6.294001
  Au      9.145676      8.854377      5.799328
  Au      7.174129      6.510211      5.474412
  Au      9.771944      8.299089      9.697535
  Au      7.871033      9.562029      8.295671
  Au      6.153533      7.246010      8.271933
  Au     10.546210      5.835908      9.121975
  Au      7.541677      5.062656      8.993917
  Au      9.597644      3.268588      8.662994
  Cr      8.674625      7.001186      7.589506
13
Coordinates from ORCA-job pbe E -2674.157381269089
  Au     11.597593      4.352768      7.020124
  Au     10.926862      6.889302      6.203388
  Au      6.311175      9.056917      6.070991
  Au      8.881435      4.639876      6.293382
  Au      9.139999      8.849791      5.796258
  Au      7.173642      6.512635      5.473789
  Au      9.776477      8.300875      9.696064
  Au      7.872047      9.559766      8.297492
  Au      6.152822      7.243007      8.262883
  Au     10.547520      5.834464      9.126271
  Au      7.542358      5.063159      8.995702
  Au      9.596851      3.268486      8.662648
  Cr      8.678577      6.999932      7.593732
13
Coordinates from ORCA-job pbe E -2674.157388870898
  Au     11.596615      4.354323      7.020429
  Au     10.927952      6.890778      6.205461
  Au      6.308400      9.061938      6.071471
  Au      8.879569      4.641190      6.292741
  Au      9.134990      8.845719      5.792922
  Au      7.173998      6.514769      5.473883
  Au      9.780834      8.302142      9.695309
  Au      7.873082      9.556504      8.298138
  Au      6.151861      7.239214      8.255152
  Au     10.549560      5.832204      9.130597
  Au      7.542389      5.064808      8.997759
  Au      9.596461      3.268682      8.662013
  Cr      8.681647      6.998708      7.596851
13
Coordinates from ORCA-job pbe E -2674.157394199362
  Au     11.596074      4.356824      7.020613
  Au     10.928783      6.891694      6.206178
  Au      6.306424      9.065572      6.071765
  Au      8.878314      4.641433      6.292157
  Au      9.131388      8.842920      5.790172
  Au      7.174590      6.516861      5.474684
  Au      9.783978      8.303185      9.695510
  Au      7.875085      9.551883      8.298259
  Au      6.150802      7.236897      8.250053
  Au     10.551088      5.831118      9.134367
  Au      7.541665      5.065833      8.999154
  Au      9.595721      3.269481      8.661511
  Cr      8.683444      6.997277      7.598301
13
Coordinates from ORCA-job pbe E -2674.157398899244
  Au     11.595594      4.359412      7.021695
  Au     10.929517      6.892961      6.205659
  Au      6.303729      9.069474      6.071632
  Au      8.877385      4.640959      6.291200
  Au      9.128734      8.840747      5.786981
  Au      7.175310      6.519128      5.475704
  Au      9.787692      8.303619      9.697113
  Au      7.877410      9.546568      8.298027
  Au      6.149374      7.234744      8.246467
  Au     10.552442      5.830640      9.138158
  Au      7.540389      5.066461      9.000174
  Au      9.595003      3.270939      8.661255
  Cr      8.684777      6.995327      7.598659
13
Coordinates from ORCA-job pbe E -2674.157401120862
  Au     11.594967      4.361303      7.022452
  Au     10.929686      6.893910      6.204580
  Au      6.303124      9.070410      6.071978
  Au      8.877043      4.640515      6.290352
  Au      9.127782      8.839778      5.785326
  Au      7.175802      6.520606      5.476695
  Au      9.789638      8.303778      9.698885
  Au      7.878884      9.542872      8.297176
  Au      6.148722      7.234439      8.245372
  Au     10.552594      5.831186      9.140124
  Au      7.539416      5.066192      9.000505
  Au      9.594454      3.272224      8.661127
  Cr      8.685247      6.993764      7.598152
13
Coordinates from ORCA-job pbe E -2674.157401868641
  Au     11.594697      4.361410      7.022919
  Au     10.929901      6.894328      6.204083
  Au      6.302455      9.070601      6.071740
  Au      8.877277      4.640179      6.289869
  Au      9.128194      8.839842      5.784637
  Au      7.175556      6.521196      5.476674
  Au      9.790009      8.303548      9.699897
  Au      7.879377      9.542341      8.296935
  Au      6.148543      7.234332      8.245947
  Au     10.552237      5.831805      9.140493
  Au      7.539477      5.065795      9.000771
  Au      9.594300      3.272525      8.661176
  Cr      8.685334      6.993076      7.597584
