16
E=  -1689.92030777;c=0;m=5
Au      8.422215980993030      7.453348473471120     11.359609172974951
Au      6.140461602545080      5.989534131106070     10.881721456674050
Au      6.074929364318020      8.823595581418020     10.369528210092380
Au      8.722806455444060      9.930458516726830     10.110672889149400
Au      8.345523652392350      5.506830073958270      9.200748964962200
Au     10.142113035924980      7.730457078726500      9.119693698870121
Au      6.717834351261950     10.958313205391820      8.525797247724720
Au      9.780052276351780      6.112413391138900      6.861405547380230
Au      8.917932148174179      9.559663780622619      7.323455979001580
Au      8.204975272679150      7.735303786636480      5.257438710742960
Au      4.408626500061800      9.486896848461649      8.111943049904960
Au      6.328158746684970      9.562698355703951      6.085384994897710
Au      5.717473021188530      4.921162601803460      8.247244211487500
Au      5.064406428092080      7.088992861326500      6.558346439713900
Au      4.085106110187480      7.039638147957040      9.332137686141071
Mn      7.327957743700540      6.223719475550760      6.936415250282280
