16
Coordinates from ORCA-job pbe E -3188.217412588352
  Au      8.187685      7.954425     11.916132
  Au      6.784920      6.040356     10.468386
  Au      6.198283      8.860027     10.215732
  Au      8.851599      9.951546     10.015907
  Au      8.499781      4.851101      8.608617
  Au      9.461697      7.272421      9.600256
  Au      6.880401     10.904062      8.334145
  Au      9.773067      6.692611      6.942821
  Au      8.914471      9.279216      7.270343
  Au      7.596995      7.150615      5.320170
  Au      4.525459      9.403504      8.033283
  Au      6.381117      9.488864      5.995292
  Au      5.841078      4.919713      7.925768
  Au      4.913198      7.073884      6.419721
  Au      4.449076      6.940060      9.244817
  Mn      7.141746      7.340620      7.970154
16
Coordinates from ORCA-job pbe E -3188.217560920975
  Au      8.192115      7.950512     11.918398
  Au      6.779115      6.040935     10.468826
  Au      6.195023      8.861538     10.219172
  Au      8.854472      9.952542     10.015877
  Au      8.497824      4.852061      8.615235
  Au      9.472686      7.271687      9.593864
  Au      6.878135     10.906333      8.336211
  Au      9.770191      6.690710      6.939882
  Au      8.914573      9.281659      7.270802
  Au      7.596996      7.149280      5.321115
  Au      4.521756      9.405044      8.032139
  Au      6.380091      9.488798      5.994054
  Au      5.843127      4.917029      7.925358
  Au      4.918801      7.072427      6.414767
  Au      4.444373      6.940045      9.242695
  Mn      7.141294      7.342426      7.973148
16
Coordinates from ORCA-job pbe E -3188.217833831788
  Au      8.196056      7.942104     11.906356
  Au      6.768392      6.048877     10.466249
  Au      6.190959      8.862369     10.223099
  Au      8.854882      9.944956     10.013329
  Au      8.495589      4.856441      8.631409
  Au      9.490711      7.274349      9.585976
  Au      6.874505     10.903264      8.341742
  Au      9.765025      6.687589      6.932758
  Au      8.912587      9.284721      7.273618
  Au      7.596432      7.147673      5.323672
  Au      4.519000      9.405970      8.031988
  Au      6.378834      9.488021      5.996579
  Au      5.847568      4.915309      7.925441
  Au      4.930733      7.070116      6.410747
  Au      4.438776      6.942782      9.237290
  Mn      7.140526      7.348485      7.981293
16
Coordinates from ORCA-job pbe E -3188.218098828443
  Au      8.201638      7.933074     11.894012
  Au      6.755804      6.054925     10.465650
  Au      6.184297      8.864609     10.228133
  Au      8.856150      9.937663     10.011326
  Au      8.499495      4.862108      8.646628
  Au      9.513573      7.276297      9.581139
  Au      6.870533     10.900522      8.347144
  Au      9.761256      6.683214      6.927773
  Au      8.912007      9.284969      7.273745
  Au      7.594009      7.146190      5.322473
  Au      4.514562      9.407496      8.031588
  Au      6.377557      9.488949      5.998892
  Au      5.849760      4.916139      7.924593
  Au      4.940441      7.065762      6.408444
  Au      4.429964      6.944944      9.228453
  Mn      7.139528      7.356167      7.991550
16
Coordinates from ORCA-job pbe E -3188.218352070763
  Au      8.206797      7.923509     11.880661
  Au      6.743149      6.058031     10.464880
  Au      6.175871      8.866742     10.233197
  Au      8.855943      9.930744     10.006948
  Au      8.498824      4.874112      8.659096
  Au      9.538857      7.277107      9.576769
  Au      6.867913     10.895548      8.351976
  Au      9.755723      6.680571      6.925196
  Au      8.913172      9.281023      7.272395
  Au      7.591109      7.146090      5.321766
  Au      4.511056      9.408412      8.030773
  Au      6.377566      9.489391      6.002316
  Au      5.856933      4.918340      7.926325
  Au      4.947608      7.061756      6.407476
  Au      4.421201      6.946267      9.217621
  Mn      7.138851      7.365385      8.004149
16
Coordinates from ORCA-job pbe E -3188.218583814758
  Au      8.209426      7.915159     11.868720
  Au      6.729096      6.058801     10.467600
  Au      6.165354      8.869038     10.239874
  Au      8.854183      9.926145     10.002753
  Au      8.503712      4.878994      8.669501
  Au      9.566107      7.280073      9.576638
  Au      6.866167     10.891684      8.355713
  Au      9.756128      6.674462      6.915639
  Au      8.916386      9.276381      7.268630
  Au      7.587183      7.147844      5.321612
  Au      4.506802      9.410813      8.029176
  Au      6.377575      9.491069      6.005357
  Au      5.862866      4.920230      7.928356
  Au      4.950508      7.059204      6.406525
  Au      4.410695      6.946917      9.206990
  Mn      7.138385      7.376212      8.018459
16
Coordinates from ORCA-job pbe E -3188.218793208468
  Au      8.211494      7.904223     11.855199
  Au      6.715976      6.057445     10.470407
  Au      6.154943      8.869127     10.246207
  Au      8.852696      9.920789      9.995945
  Au      8.509210      4.890729      8.680670
  Au      9.588116      7.280754      9.565912
  Au      6.865584     10.887967      8.358236
  Au      9.752968      6.670409      6.915419
  Au      8.920480      9.272314      7.264561
  Au      7.584223      7.149709      5.326440
  Au      4.503781      9.413183      8.027239
  Au      6.377956      9.492294      6.008114
  Au      5.868996      4.922115      7.931523
  Au      4.954026      7.058115      6.403710
  Au      4.402213      6.946948      9.198117
  Mn      7.137910      7.386904      8.033844
16
Coordinates from ORCA-job pbe E -3188.218982363692
  Au      8.215525      7.894566     11.842881
  Au      6.703013      6.052429     10.471405
  Au      6.143288      8.867893     10.252888
  Au      8.851279      9.916164      9.991624
  Au      8.508189      4.901375      8.692252
  Au      9.608478      7.286477      9.559230
  Au      6.864191     10.884937      8.359553
  Au      9.753164      6.662331      6.906980
  Au      8.925522      9.269154      7.258848
  Au      7.582850      7.150839      5.334845
  Au      4.501251      9.414819      8.025179
  Au      6.377371      9.493714      6.010293
  Au      5.876527      4.926403      7.934641
  Au      4.957275      7.057761      6.401731
  Au      4.395338      6.946026      9.189008
  Mn      7.137312      7.398139      8.050186
16
Coordinates from ORCA-job pbe E -3188.219153850507
  Au      8.217076      7.885203     11.829671
  Au      6.690014      6.045863     10.476745
  Au      6.132163      8.865517     10.260074
  Au      8.847215      9.912349      9.985140
  Au      8.511492      4.908073      8.702103
  Au      9.624328      7.294016      9.548882
  Au      6.864402     10.881189      8.360015
  Au      9.759360      6.654134      6.901544
  Au      8.929824      9.265810      7.250732
  Au      7.581754      7.151452      5.345879
  Au      4.500037      9.417162      8.024981
  Au      6.376716      9.496257      6.011583
  Au      5.881217      4.930174      7.933830
  Au      4.959216      7.059503      6.400521
  Au      4.388637      6.946205      9.182361
  Mn      7.137123      7.410119      8.067483
16
Coordinates from ORCA-job pbe E -3188.219303822013
  Au      8.218652      7.875874     11.816883
  Au      6.677274      6.036697     10.481758
  Au      6.122294      8.861996     10.268603
  Au      8.842877      9.909685      9.980412
  Au      8.512641      4.918332      8.709602
  Au      9.635460      7.302711      9.539332
  Au      6.864932     10.878080      8.358592
  Au      9.768374      6.644847      6.896077
  Au      8.933625      9.261153      7.239414
  Au      7.583175      7.149483      5.360933
  Au      4.499336      9.419539      8.026241
  Au      6.375002      9.499198      6.009977
  Au      5.885463      4.935313      7.929636
  Au      4.960368      7.062460      6.400657
  Au      4.383766      6.945407      9.178128
  Mn      7.137334      7.422252      8.085301
16
Coordinates from ORCA-job pbe E -3188.219427893825
  Au      8.220639      7.866849     11.805973
  Au      6.664229      6.027601     10.485865
  Au      6.114230      8.858769     10.276958
  Au      8.838100      9.909642      9.974652
  Au      8.510035      4.926126      8.715229
  Au      9.646348      7.312748      9.528028
  Au      6.865153     10.872891      8.356225
  Au      9.782368      6.636619      6.893568
  Au      8.933823      9.255712      7.229014
  Au      7.583506      7.146337      5.378298
  Au      4.500193      9.420770      8.029164
  Au      6.371790      9.501159      6.007169
  Au      5.888909      4.940464      7.922533
  Au      4.964062      7.068487      6.400361
  Au      4.380126      6.945390      9.175459
  Mn      7.137061      7.433464      8.103048
16
Coordinates from ORCA-job pbe E -3188.219533728245
  Au      8.221478      7.855891     11.794330
  Au      6.652851      6.018359     10.490059
  Au      6.107432      8.856071     10.286837
  Au      8.833988      9.909168      9.970882
  Au      8.510365      4.940910      8.718977
  Au      9.654727      7.320577      9.521677
  Au      6.866198     10.868073      8.351303
  Au      9.796035      6.628464      6.889070
  Au      8.933116      9.247332      7.217011
  Au      7.588383      7.140867      5.398022
  Au      4.500179      9.423032      8.032619
  Au      6.367596      9.504172      6.000451
  Au      5.891698      4.946250      7.912329
  Au      4.963253      7.074589      6.402709
  Au      4.375961      6.944136      9.174192
  Mn      7.137313      7.445135      8.121075
16
Coordinates from ORCA-job pbe E -3188.219625544729
  Au      8.223839      7.845310     11.783081
  Au      6.640560      6.011415     10.491137
  Au      6.101547      8.854905     10.296523
  Au      8.831691      9.909154      9.967730
  Au      8.506721      4.951820      8.721807
  Au      9.668368      7.329748      9.513669
  Au      6.866143     10.861670      8.346584
  Au      9.814022      6.621501      6.888807
  Au      8.929444      9.238705      7.208803
  Au      7.589896      7.135550      5.417389
  Au      4.499859      9.424284      8.036335
  Au      6.360981      9.506020      5.992072
  Au      5.894976      4.951651      7.903204
  Au      4.964940      7.082878      6.402419
  Au      4.371506      6.943346      9.172967
  Mn      7.136079      7.455069      8.139018
16
Coordinates from ORCA-job pbe E -3188.219708370986
  Au      8.225556      7.833861     11.773239
  Au      6.628953      6.004909     10.491500
  Au      6.095781      8.855599     10.305286
  Au      8.829119      9.909634      9.964070
  Au      8.506341      4.966050      8.723184
  Au      9.683931      7.335725      9.509138
  Au      6.866966     10.852369      8.339699
  Au      9.831712      6.615248      6.886302
  Au      8.923421      9.228302      7.202572
  Au      7.593475      7.130746      5.439428
  Au      4.500616      9.424736      8.039887
  Au      6.353293      9.507669      5.981999
  Au      5.897326      4.958999      7.892576
  Au      4.963394      7.091579      6.404863
  Au      4.366487      6.942896      9.170902
  Mn      7.134201      7.464704      8.156898
16
Coordinates from ORCA-job pbe E -3188.219781609662
  Au      8.227093      7.821674     11.760646
  Au      6.618942      6.000403     10.491339
  Au      6.089944      8.857908     10.314679
  Au      8.829069      9.906564      9.962949
  Au      8.505214      4.980533      8.723224
  Au      9.702280      7.341400      9.505144
  Au      6.868461     10.843500      8.332596
  Au      9.852225      6.610799      6.885911
  Au      8.917563      9.217484      7.198796
  Au      7.596787      7.126012      5.462023
  Au      4.499031      9.426510      8.042469
  Au      6.343243      9.510569      5.967495
  Au      5.901490      4.964955      7.884470
  Au      4.959229      7.099812      6.405147
  Au      4.359235      6.942002      9.170011
  Mn      7.130768      7.472901      8.174644
16
Coordinates from ORCA-job pbe E -3188.219839544027
  Au      8.228434      7.811353     11.748802
  Au      6.607598      5.994701     10.491276
  Au      6.082236      8.860482     10.322624
  Au      8.827583      9.903347      9.960405
  Au      8.507176      4.994858      8.723964
  Au      9.722191      7.345970      9.501071
  Au      6.870999     10.832239      8.325621
  Au      9.870557      6.606160      6.881804
  Au      8.912809      9.207763      7.196356
  Au      7.599453      7.123607      5.486902
  Au      4.499524      9.427163      8.043908
  Au      6.333727      9.513302      5.954769
  Au      5.904537      4.972987      7.877241
  Au      4.955193      7.106988      6.406311
  Au      4.352392      6.941800      9.167837
  Mn      7.126164      7.480306      8.192652
16
Coordinates from ORCA-job pbe E -3188.219883051706
  Au      8.228401      7.800288     11.734924
  Au      6.597050      5.987976     10.493148
  Au      6.072723      8.862607     10.330826
  Au      8.825889      9.898522      9.958219
  Au      8.508310      5.010242      8.724216
  Au      9.741158      7.350231      9.495621
  Au      6.874630     10.821858      8.318542
  Au      9.891623      6.602022      6.878121
  Au      8.911153      9.199276      7.192743
  Au      7.600964      7.122119      5.511839
  Au      4.499868      9.428364      8.044397
  Au      6.324233      9.517293      5.941924
  Au      5.908649      4.980592      7.872096
  Au      4.949938      7.112246      6.407141
  Au      4.345451      6.942303      9.166873
  Mn      7.120534      7.487091      8.210915
16
Coordinates from ORCA-job pbe E -3188.219907635978
  Au      8.229403      7.791590     11.719795
  Au      6.584856      5.980212     10.495958
  Au      6.061640      8.863947     10.340064
  Au      8.823612      9.893650      9.955944
  Au      8.509712      5.022885      8.726662
  Au      9.760930      7.358115      9.487685
  Au      6.878250     10.812516      8.313605
  Au      9.904885      6.598160      6.871178
  Au      8.912608      9.192122      7.189770
  Au      7.602814      7.120618      5.535368
  Au      4.500468      9.429758      8.043610
  Au      6.317493      9.520856      5.933029
  Au      5.912435      4.985892      7.868431
  Au      4.948575      7.116822      6.405496
  Au      4.338506      6.943035      9.165290
  Mn      7.114384      7.492846      8.229658
16
Coordinates from ORCA-job pbe E -3188.219917536134
  Au      8.228124      7.783802     11.709953
  Au      6.577121      5.973093     10.498348
  Au      6.053999      8.865223     10.346278
  Au      8.821095      9.891098      9.954656
  Au      8.511374      5.036426      8.725387
  Au      9.770292      7.358838      9.483869
  Au      6.881921     10.807233      8.307592
  Au      9.921987      6.596311      6.869119
  Au      8.914560      9.187545      7.185296
  Au      7.601833      7.120159      5.549963
  Au      4.501862      9.430648      8.042871
  Au      6.312802      9.523512      5.926991
  Au      5.913943      4.990805      7.865397
  Au      4.944276      7.117089      6.408074
  Au      4.335868      6.944627      9.166560
  Mn      7.109515      7.496617      8.241190
16
Coordinates from ORCA-job pbe E -3188.219925910136
  Au      8.227677      7.782888     11.709001
  Au      6.576900      5.972637     10.498964
  Au      6.053561      8.865425     10.347383
  Au      8.820312      9.892117      9.955023
  Au      8.509867      5.035932      8.725985
  Au      9.771076      7.361282      9.482531
  Au      6.881964     10.808611      8.308240
  Au      9.919173      6.596438      6.867312
  Au      8.915722      9.188139      7.185735
  Au      7.602119      7.118917      5.548124
  Au      4.501866      9.430788      8.042413
  Au      6.314646      9.522594      5.929257
  Au      5.913872      4.988985      7.865869
  Au      4.946283      7.116527      6.407586
  Au      4.336360      6.945373      9.166401
  Mn      7.109175      7.496373      8.241719
16
Coordinates from ORCA-job pbe E -3188.219936676797
  Au      8.228326      7.781247     11.706656
  Au      6.574861      5.970070     10.499437
  Au      6.053124      8.866727     10.349803
  Au      8.818627      9.893665      9.956386
  Au      8.508712      5.037697      8.725217
  Au      9.771366      7.365060      9.480245
  Au      6.882319     10.811269      8.308011
  Au      9.917027      6.597971      6.865800
  Au      8.916623      9.188030      7.186800
  Au      7.602464      7.116189      5.545465
  Au      4.502586      9.431703      8.041497
  Au      6.318411      9.520145      5.933031
  Au      5.912127      4.985251      7.865966
  Au      4.948826      7.115174      6.407230
  Au      4.337868      6.947132      9.167456
  Mn      7.107306      7.495695      8.242545
