13
E=  -1382.46402641;c=0;m=3
Au      8.320574631161479      7.334477952701400     11.057904344179169
Au     10.208935980293750      8.997348436273050     12.276797294372090
Au      9.528942870894619      4.917843211648390     10.022574079911371
Au      7.063982494229980      5.821480520871230      8.995255571210350
Au      9.576091585999110      9.697601014149560      9.699889479367259
Au      7.035405506501290      8.634799379994620      8.815031141415290
Au      9.044281124518200      4.794603546282950      7.137092554849700
Au     11.535454158820450      8.488614856114429      7.971207410664560
Au      9.068734784020309      9.340744570355080      6.965614358730360
Au      7.533380093701280      7.046818549295680      6.405363499552630
Au     11.512920809526729      5.697549629666540      8.149160313113789
Au     11.268265272391471      7.175169239944750     10.519285099784680
Fe      9.300306857941351      7.145724292702310      8.453420562848750
