15
E=  -1581.20515319;c=0;m=4
Au      6.421734433742300      8.570455634853611     10.484887217298761
Au      5.309339106758140      6.105884662014810      9.579028674878970
Au      8.045097385456980      6.341424913929290     10.052875020490839
Au      8.731547397579540      8.953475049468061      8.898352615496540
Au      7.263853059552580      5.224437957607390      7.520297171774120
Au      9.946942933830041      6.316372321374900      8.053046785693279
Au     10.254677846729940      8.600327710882400      6.487572228538060
Au      8.193232311451590     10.515111776001000      6.483775731439830
Au      8.094335847057669      8.580135750142770      4.444085341547280
Au      5.768583737977230      8.924364464664031      6.096279164545990
Au      6.568998203031270      6.286167813393310      4.860866457631320
Au      4.679746617683390      6.307129473483810      6.872416787227030
Au      4.316120119000120      8.549208742720699      8.495581890271399
Au      6.310924246563140     10.493070533099720      8.472826257494820
Mn      8.465325713586081      6.949299586364230      6.231250245671740
