16
E=  -1708.44042958;c=0;m=6
Au      7.397713572141660     11.078955446274680      8.144314440782880
Au      6.062021089577740      8.882193428472560      9.419200160938020
Au      8.706749543916800      9.559212679169470     10.105413228131290
Au      8.086482400169830      6.834221777248150      9.951639839378480
Au     10.498748625345989      7.823611218256320      8.775312583670370
Au      8.293255956440129     10.192787520689620      5.591490146770440
Au     10.152562318254210      8.129036554736530      5.985477929632880
Au      5.730045076607130      9.512898693558061      6.515343908263900
Au      7.501868881145710      4.296005439540000      8.948042230841001
Au      3.852093938654430      8.017742217458110      7.959933758856650
Au      5.424503799054330      6.137286802421780      9.215540690116811
Au      7.510423142074530      7.448926273487780      5.288914101150240
Au      6.350691975731810      5.220370020595550      6.581306663714450
Au      9.035987699462710      5.896476995624560      7.249608338285850
Au      4.746843182395030      7.131774869203070      5.415908018226290
Fe      8.194752869027949      8.578333063263759      7.704495471240440
