16
Coordinates from ORCA-job pbe E -3300.904441145820
  Au      7.397714     11.078955      8.144314
  Au      6.062021      8.882193      9.419200
  Au      8.706750      9.559213     10.105413
  Au      8.086482      6.834222      9.951640
  Au     10.498749      7.823611      8.775313
  Au      8.293256     10.192788      5.591490
  Au     10.152562      8.129037      5.985478
  Au      5.730045      9.512899      6.515344
  Au      7.501869      4.296005      8.948042
  Au      3.852094      8.017742      7.959934
  Au      5.424504      6.137287      9.215541
  Au      7.510423      7.448926      5.288914
  Au      6.350692      5.220370      6.581307
  Au      9.035988      5.896477      7.249608
  Au      4.746843      7.131775      5.415908
  Fe      8.194753      8.578333      7.704495
16
Coordinates from ORCA-job pbe E -3300.906272187784
  Au      7.369750     11.052110      8.149876
  Au      6.069611      8.873848      9.409037
  Au      8.685219      9.538952     10.103502
  Au      8.082085      6.851411      9.930354
  Au     10.468110      7.790977      8.775874
  Au      8.268828     10.162151      5.587484
  Au     10.129547      8.109395      5.985281
  Au      5.753247      9.501277      6.528237
  Au      7.510073      4.342681      8.934765
  Au      3.896802      8.020045      7.959716
  Au      5.451684      6.165104      9.197609
  Au      7.509807      7.449022      5.303680
  Au      6.368089      5.258326      6.591876
  Au      9.023785      5.921046      7.251098
  Au      4.783103      7.143232      5.439590
  Fe      8.175005      8.560256      7.703962
16
Coordinates from ORCA-job pbe E -3300.906848274805
  Au      7.372587     11.059192      8.159215
  Au      6.061662      8.875023      9.415574
  Au      8.695784      9.552155     10.106544
  Au      8.075458      6.845828      9.935809
  Au     10.472417      7.784026      8.779641
  Au      8.277230     10.162455      5.579355
  Au     10.141738      8.119560      5.981708
  Au      5.741852      9.503732      6.524612
  Au      7.517257      4.342079      8.937267
  Au      3.890709      8.018506      7.951817
  Au      5.459705      6.160622      9.189876
  Au      7.507715      7.443952      5.294470
  Au      6.369677      5.261191      6.602881
  Au      9.020293      5.911550      7.248456
  Au      4.774044      7.147162      5.440892
  Fe      8.166616      8.552799      7.703824
16
Coordinates from ORCA-job pbe E -3300.907684434228
  Au      7.367373     11.056311      8.171341
  Au      6.046249      8.880242      9.438633
  Au      8.711328      9.566807     10.104254
  Au      8.075217      6.857708      9.956744
  Au     10.469756      7.771625      8.782284
  Au      8.277456     10.150817      5.570461
  Au     10.154795      8.133853      5.982828
  Au      5.748180      9.519672      6.524179
  Au      7.538064      4.319123      8.953042
  Au      3.878841      8.023821      7.953266
  Au      5.459869      6.168675      9.181973
  Au      7.510743      7.430802      5.267852
  Au      6.367545      5.273492      6.601876
  Au      9.034858      5.908640      7.231787
  Au      4.767826      7.152818      5.428200
  Fe      8.136643      8.525429      7.703220
16
Coordinates from ORCA-job pbe E -3300.908634325674
  Au      7.370024     11.045742      8.178656
  Au      6.043101      8.894475      9.458765
  Au      8.717576      9.564196     10.092318
  Au      8.069244      6.865988      9.966876
  Au     10.455388      7.761968      8.779780
  Au      8.279354     10.137841      5.573306
  Au     10.152410      8.138709      5.994079
  Au      5.744605      9.525485      6.523301
  Au      7.555896      4.327703      8.957767
  Au      3.875225      8.028285      7.945395
  Au      5.482205      6.169513      9.167076
  Au      7.523900      7.429665      5.244439
  Au      6.377409      5.288176      6.622501
  Au      9.037825      5.907735      7.219279
  Au      4.763368      7.163522      5.426812
  Fe      8.097215      8.490830      7.701590
16
Coordinates from ORCA-job pbe E -3300.909680323476
  Au      7.377392     11.033814      8.169694
  Au      6.035437      8.903211      9.477779
  Au      8.724275      9.558705     10.074027
  Au      8.064073      6.866865      9.979781
  Au     10.445820      7.774118      8.771832
  Au      8.276175     10.134124      5.589454
  Au     10.146742      8.145996      6.011276
  Au      5.744241      9.514870      6.528338
  Au      7.554489      4.342302      8.953402
  Au      3.894271      8.027642      7.950619
  Au      5.491163      6.184979      9.153707
  Au      7.531563      7.424242      5.222486
  Au      6.380530      5.310836      6.627574
  Au      9.040430      5.899479      7.208080
  Au      4.783664      7.165570      5.434236
  Fe      8.054478      8.453079      7.699656
16
Coordinates from ORCA-job pbe E -3300.910396491790
  Au      7.394246     11.023152      8.153618
  Au      6.030079      8.917697      9.497507
  Au      8.726516      9.552125     10.054660
  Au      8.068810      6.867239      9.993556
  Au     10.429601      7.778481      8.764375
  Au      8.277962     10.136642      5.614137
  Au     10.136026      8.152019      6.027833
  Au      5.741120      9.511719      6.529705
  Au      7.561690      4.356207      8.951609
  Au      3.897449      8.031576      7.957480
  Au      5.497561      6.195002      9.153504
  Au      7.542564      7.424006      5.198692
  Au      6.388097      5.321250      6.626553
  Au      9.051189      5.893618      7.201383
  Au      4.793262      7.166393      5.429933
  Fe      8.008572      8.412706      7.697398
16
Coordinates from ORCA-job pbe E -3300.910856354698
  Au      7.401962     11.014401      8.143626
  Au      6.030033      8.929658      9.511882
  Au      8.724720      9.556615     10.040822
  Au      8.075867      6.863202     10.012495
  Au     10.426079      7.782288      8.762008
  Au      8.276362     10.136277      5.628513
  Au     10.129770      8.164387      6.033819
  Au      5.738504      9.510945      6.530053
  Au      7.562898      4.359194      8.951383
  Au      3.901997      8.037689      7.956902
  Au      5.501454      6.203762      9.152156
  Au      7.553050      7.425247      5.181554
  Au      6.391547      5.329835      6.625863
  Au      9.066618      5.881003      7.195052
  Au      4.798615      7.173302      5.429992
  Fe      7.965266      8.372026      7.695821
16
Coordinates from ORCA-job pbe E -3300.911155513809
  Au      7.415440     11.019067      8.137859
  Au      6.023834      8.938346      9.522533
  Au      8.726171      9.552476     10.036278
  Au      8.082769      6.864992     10.027088
  Au     10.417351      7.773295      8.762846
  Au      8.284048     10.143476      5.635202
  Au     10.127078      8.163549      6.040386
  Au      5.729515      9.522020      6.524364
  Au      7.570155      4.373833      8.948057
  Au      3.897772      8.034306      7.963389
  Au      5.508866      6.213713      9.155567
  Au      7.556096      7.425889      5.167237
  Au      6.401650      5.337857      6.622901
  Au      9.080905      5.876891      7.188191
  Au      4.799772      7.166686      5.425863
  Fe      7.923322      8.333438      7.694182
16
Coordinates from ORCA-job pbe E -3300.911313201286
  Au      7.408207     11.014696      8.138638
  Au      6.024690      8.943458      9.524129
  Au      8.726165      9.554734     10.032040
  Au      8.091301      6.858889     10.042438
  Au     10.417245      7.775909      8.763027
  Au      8.277641     10.137093      5.631640
  Au     10.125659      8.168627      6.042558
  Au      5.728909      9.533046      6.521141
  Au      7.570798      4.374357      8.947065
  Au      3.901538      8.042576      7.956365
  Au      5.514830      6.219504      9.158142
  Au      7.558540      7.429204      5.164389
  Au      6.408457      5.341615      6.622087
  Au      9.095454      5.864734      7.186165
  Au      4.800588      7.177947      5.428024
  Fe      7.894721      8.303445      7.694092
16
Coordinates from ORCA-job pbe E -3300.911346293623
  Au      7.409530     11.013150      8.140759
  Au      6.024486      8.947413      9.521081
  Au      8.722993      9.551517     10.032365
  Au      8.096219      6.859527     10.048045
  Au     10.415355      7.772628      8.763134
  Au      8.278793     10.136459      5.631532
  Au     10.124643      8.166749      6.043986
  Au      5.721102      9.539748      6.515602
  Au      7.571204      4.376546      8.946667
  Au      3.905171      8.040818      7.952724
  Au      5.518627      6.224917      9.159464
  Au      7.556469      7.433027      5.163425
  Au      6.411753      5.344826      6.620825
  Au      9.103940      5.862962      7.184687
  Au      4.799975      7.178338      5.433457
  Fe      7.884485      8.291211      7.694190
16
Coordinates from ORCA-job pbe E -3300.911364115551
  Au      7.408631     11.010796      8.139009
  Au      6.022105      8.951665      9.518713
  Au      8.722164      9.548086     10.033362
  Au      8.096965      6.857118     10.052823
  Au     10.414282      7.772880      8.763061
  Au      8.276322     10.135568      5.633077
  Au     10.122564      8.163921      6.044568
  Au      5.720496      9.554028      6.510326
  Au      7.571225      4.380152      8.944806
  Au      3.908075      8.038091      7.952929
  Au      5.524208      6.228515      9.161854
  Au      7.554399      7.436872      5.162578
  Au      6.417820      5.346525      6.620451
  Au      9.107028      5.858155      7.183572
  Au      4.801692      7.176049      5.436187
  Fe      7.876769      8.281413      7.694624
16
Coordinates from ORCA-job pbe E -3300.911375593778
  Au      7.409680     11.010379      8.139339
  Au      6.020004      8.952060      9.518815
  Au      8.722798      9.548256     10.033340
  Au      8.096756      6.857809     10.052604
  Au     10.413348      7.772625      8.762933
  Au      8.277115     10.134564      5.633814
  Au     10.121026      8.163319      6.043878
  Au      5.718502      9.552689      6.510226
  Au      7.573431      4.377670      8.946091
  Au      3.907831      8.039208      7.951835
  Au      5.524497      6.227704      9.161453
  Au      7.553420      7.436977      5.162314
  Au      6.418346      5.346383      6.620733
  Au      9.106151      5.858914      7.183712
  Au      4.801922      7.177813      5.435573
  Fe      7.879917      8.283463      7.695282
16
Coordinates from ORCA-job pbe E -3300.911381372008
  Au      7.409915     11.009055      8.140105
  Au      6.019657      8.953255      9.518405
  Au      8.720492      9.547994     10.034113
  Au      8.096408      6.857459     10.052075
  Au     10.413244      7.773180      8.761906
  Au      8.277077     10.135333      5.634761
  Au     10.121440      8.163476      6.043598
  Au      5.717526      9.552175      6.509238
  Au      7.573463      4.375598      8.947774
  Au      3.908668      8.039838      7.951925
  Au      5.525666      6.228076      9.160867
  Au      7.552064      7.436909      5.160452
  Au      6.417574      5.346139      6.621579
  Au      9.105718      5.858568      7.183763
  Au      4.801706      7.177761      5.435415
  Fe      7.884128      8.285017      7.695963
16
Coordinates from ORCA-job pbe E -3300.911384877549
  Au      7.409881     11.008904      8.139254
  Au      6.018279      8.954597      9.518503
  Au      8.720157      9.547792     10.035151
  Au      8.097108      6.856669     10.053211
  Au     10.412912      7.774421      8.761872
  Au      8.276748     10.134902      5.635251
  Au     10.119618      8.162217      6.042021
  Au      5.716600      9.553049      6.508757
  Au      7.572948      4.374485      8.947551
  Au      3.909137      8.039422      7.951809
  Au      5.526658      6.229011      9.160070
  Au      7.552116      7.438219      5.159971
  Au      6.418354      5.347008      6.621696
  Au      9.106014      5.857558      7.184148
  Au      4.802192      7.177732      5.435524
  Fe      7.886020      8.283848      7.697150
16
Coordinates from ORCA-job pbe E -3300.911389153429
  Au      7.409951     11.008685      8.138674
  Au      6.017807      8.956106      9.518928
  Au      8.718626      9.547657     10.036003
  Au      8.098227      6.855412     10.054853
  Au     10.412338      7.775803      8.761190
  Au      8.276122     10.135063      5.635593
  Au     10.118477      8.161219      6.041123
  Au      5.716933      9.553282      6.508586
  Au      7.572589      4.374570      8.947122
  Au      3.908787      8.039822      7.951677
  Au      5.528316      6.230640      9.159685
  Au      7.551504      7.438875      5.159233
  Au      6.419445      5.348340      6.621309
  Au      9.106921      5.856324      7.184487
  Au      4.802379      7.177587      5.434984
  Fe      7.886322      8.280449      7.698496
16
Coordinates from ORCA-job pbe E -3300.911392833507
  Au      7.410141     11.008741      8.137983
  Au      6.017131      8.957302      9.518723
  Au      8.715967      9.547154     10.037073
  Au      8.100131      6.854373     10.056705
  Au     10.411204      7.778201      8.760691
  Au      8.276608     10.135937      5.635870
  Au     10.117606      8.160884      6.039628
  Au      5.718866      9.551470      6.509743
  Au      7.571646      4.375429      8.946551
  Au      3.908010      8.040140      7.952251
  Au      5.530251      6.233936      9.158791
  Au      7.551343      7.440061      5.157648
  Au      6.420139      5.349704      6.621162
  Au      9.108629      5.854455      7.184626
  Au      4.800622      7.177224      5.434219
  Fe      7.886449      8.274822      7.700277
16
Coordinates from ORCA-job pbe E -3300.911394670538
  Au      7.411493     11.009542      8.137833
  Au      6.017000      8.958312      9.518620
  Au      8.715145      9.547989     10.037531
  Au      8.100270      6.853711     10.058174
  Au     10.411041      7.779014      8.759683
  Au      8.276908     10.136436      5.635863
  Au     10.117022      8.159883      6.038983
  Au      5.720843      9.548836      6.511235
  Au      7.571372      4.376060      8.946106
  Au      3.906256      8.039864      7.951591
  Au      5.530676      6.234363      9.158141
  Au      7.550278      7.440927      5.157984
  Au      6.420407      5.350783      6.620299
  Au      9.109563      5.855048      7.184561
  Au      4.799944      7.176561      5.433964
  Fe      7.886525      8.272502      7.701371
