13
Coordinates from ORCA-job pbe E -2893.382395866240
  Au      9.211208      9.799658     10.595306
  Au      9.572277      7.013268     11.643163
  Au      7.623626      6.083493     10.014378
  Au      7.020911      6.611230      7.165425
  Au      6.601304      8.992280      6.164434
  Au      7.230824      4.137105      7.991629
  Au      7.248330      8.980123      8.924333
  Au     11.782647      8.723306     11.137898
  Au     11.662698      6.453737      9.435864
  Au      9.694319      5.529186      7.827340
  Au     11.301352      9.239271      8.387592
  Au      9.319040      8.425558      6.736751
  Fe      9.482594      7.703232      9.219254
13
Coordinates from ORCA-job pbe E -2893.383584920328
  Au      9.207368      9.805865     10.598448
  Au      9.569406      7.009801     11.649925
  Au      7.614798      6.075031      9.999570
  Au      7.038681      6.619294      7.180576
  Au      6.625265      9.035167      6.176149
  Au      7.261620      4.118452      8.026432
  Au      7.239676      8.974913      8.909080
  Au     11.765817      8.716140     11.123971
  Au     11.668258      6.448341      9.433893
  Au      9.678112      5.522760      7.821119
  Au     11.305214      9.244141      8.382173
  Au      9.302299      8.421961      6.729613
  Fe      9.474615      7.699583      9.212420
13
Coordinates from ORCA-job pbe E -2893.383896576287
  Au      9.205202      9.812577     10.599262
  Au      9.567680      7.004443     11.654798
  Au      7.611783      6.073282      9.999249
  Au      7.052220      6.624957      7.192270
  Au      6.629767      9.047321      6.177625
  Au      7.269552      4.111885      8.035924
  Au      7.237073      8.976425      8.908530
  Au     11.748117      8.707945     11.109455
  Au     11.671705      6.442074      9.433838
  Au      9.677800      5.520209      7.818666
  Au     11.307015      9.250351      8.378087
  Au      9.301846      8.421871      6.726135
  Fe      9.471371      7.698107      9.209530
13
Coordinates from ORCA-job pbe E -2893.384188298889
  Au      9.198437      9.824865     10.598557
  Au      9.561881      6.993408     11.662465
  Au      7.609008      6.072133     10.003764
  Au      7.076611      6.636732      7.212764
  Au      6.635587      9.045840      6.184031
  Au      7.273302      4.114500      8.038808
  Au      7.235169      8.980975      8.910956
  Au     11.722507      8.696388     11.088272
  Au     11.676145      6.428972      9.431448
  Au      9.682456      5.516878      7.816399
  Au     11.307683      9.261386      8.367803
  Au      9.305089      8.423085      6.722249
  Fe      9.467255      7.696285      9.205854
13
Coordinates from ORCA-job pbe E -2893.384262172740
  Au      9.192988      9.835190     10.598566
  Au      9.558244      6.984280     11.669819
  Au      7.608179      6.068500     10.016618
  Au      7.093850      6.641067      7.228272
  Au      6.624931      9.053685      6.172155
  Au      7.269244      4.105364      8.036989
  Au      7.233404      8.993336      8.920904
  Au     11.702941      8.686505     11.072156
  Au     11.680855      6.418021      9.430437
  Au      9.694225      5.509718      7.816535
  Au     11.308464      9.270691      8.359453
  Au      9.317559      8.429685      6.716474
  Fe      9.466245      7.695405      9.204991
13
Coordinates from ORCA-job pbe E -2893.384383990835
  Au      9.189865      9.835208     10.597259
  Au      9.554589      6.983362     11.668961
  Au      7.609599      6.066350     10.018934
  Au      7.101513      6.646127      7.234241
  Au      6.629491      9.037874      6.180446
  Au      7.266816      4.118989      8.031001
  Au      7.234097      8.996068      8.919511
  Au     11.700390      8.685564     11.069793
  Au     11.679471      6.416298      9.427071
  Au      9.695802      5.507531      7.818457
  Au     11.306505      9.270542      8.356594
  Au      9.317107      8.432259      6.716385
  Fe      9.465886      7.695278      9.204716
13
Coordinates from ORCA-job pbe E -2893.384427903233
  Au      9.188742      9.832888     10.597474
  Au      9.552840      6.985864     11.667839
  Au      7.611176      6.061866     10.021807
  Au      7.103660      6.648802      7.235554
  Au      6.629475      9.033050      6.181553
  Au      7.262714      4.119310      8.027072
  Au      7.234314      9.000530      8.917238
  Au     11.703564      8.687183     11.072229
  Au     11.678820      6.418170      9.424500
  Au      9.697296      5.503149      7.820997
  Au     11.305751      9.268342      8.356464
  Au      9.316347      8.436804      6.715432
  Fe      9.466429      7.695491      9.205210
13
Coordinates from ORCA-job pbe E -2893.384520509235
  Au      9.182874      9.822986     10.599202
  Au      9.546054      6.994604     11.664405
  Au      7.618350      6.041392     10.028523
  Au      7.118294      6.652904      7.248319
  Au      6.622827      9.022128      6.177593
  Au      7.254521      4.130366      8.016959
  Au      7.235535      9.019534      8.909953
  Au     11.711679      8.689368     11.078835
  Au     11.677053      6.424611      9.414787
  Au      9.698308      5.484578      7.832623
  Au     11.303162      9.258776      8.354684
  Au      9.315312      8.455266      6.711367
  Fe      9.467162      7.694934      9.206117
13
Coordinates from ORCA-job pbe E -2893.384658422610
  Au      9.178151      9.815384     10.603133
  Au      9.537789      7.003269     11.663048
  Au      7.626646      6.019531     10.037522
  Au      7.137477      6.664476      7.263588
  Au      6.617282      9.018561      6.172857
  Au      7.243289      4.122311      8.009289
  Au      7.237736      9.041175      8.899238
  Au     11.713206      8.689543     11.079905
  Au     11.677288      6.430747      9.403708
  Au      9.701567      5.464189      7.845481
  Au     11.303086      9.251692      8.353213
  Au      9.311672      8.476524      6.707222
  Fe      9.465940      7.694045      9.205165
13
Coordinates from ORCA-job pbe E -2893.384917853426
  Au      9.172675      9.805669     10.611372
  Au      9.527475      7.015571     11.664044
  Au      7.639934      5.986852     10.045065
  Au      7.165959      6.678529      7.287106
  Au      6.605224      9.016519      6.161359
  Au      7.229010      4.111367      8.000219
  Au      7.243009      9.071798      8.881607
  Au     11.714156      8.688570     11.080932
  Au     11.680468      6.439874      9.389260
  Au      9.701247      5.435265      7.865604
  Au     11.305958      9.242390      8.351572
  Au      9.304159      8.507404      6.703361
  Fe      9.461855      7.691640      9.201870
13
Coordinates from ORCA-job pbe E -2893.385258952382
  Au      9.170477      9.797433     10.621353
  Au      9.519831      7.027062     11.667013
  Au      7.655353      5.955235     10.047219
  Au      7.191919      6.689719      7.309082
  Au      6.589681      9.017249      6.145852
  Au      7.216516      4.098571      7.993367
  Au      7.251519      9.100791      8.862060
  Au     11.713499      8.686619     11.081193
  Au     11.685359      6.449502      9.377660
  Au      9.696663      5.408975      7.887518
  Au     11.311778      9.234330      8.352075
  Au      9.294085      8.538008      6.703176
  Fe      9.454448      7.687955      9.195803
13
Coordinates from ORCA-job pbe E -2893.385592365031
  Au      9.168516      9.789523     10.629382
  Au      9.512895      7.037398     11.669059
  Au      7.672213      5.924072     10.049661
  Au      7.216213      6.699976      7.329841
  Au      6.574914      9.015218      6.131947
  Au      7.203855      4.089034      7.985220
  Au      7.261708      9.129886      8.842892
  Au     11.713194      8.685104     11.081851
  Au     11.688939      6.458591      9.367076
  Au      9.692801      5.383310      7.910783
  Au     11.316262      9.226533      8.352536
  Au      9.284416      8.569344      6.704835
  Fe      9.445203      7.683458      9.188287
13
Coordinates from ORCA-job pbe E -2893.385986651027
  Au      9.170479      9.784655     10.634310
  Au      9.510339      7.043943     11.670932
  Au      7.690636      5.894838     10.051602
  Au      7.235161      6.706327      7.346861
  Au      6.558893      9.010167      6.117845
  Au      7.192386      4.084186      7.976134
  Au      7.274124      9.158746      8.825151
  Au     11.712460      8.683502     11.082595
  Au     11.691276      6.466016      9.361940
  Au      9.689712      5.359649      7.935211
  Au     11.320459      9.221517      8.355438
  Au      9.275244      8.601409      6.709417
  Fe      9.429961      7.676494      9.175933
13
Coordinates from ORCA-job pbe E -2893.386463949854
  Au      9.172579      9.777227     10.635269
  Au      9.508773      7.051120     11.668524
  Au      7.708651      5.864708     10.056976
  Au      7.252252      6.712374      7.362135
  Au      6.546938      9.000751      6.108891
  Au      7.181196      4.086023      7.965235
  Au      7.285179      9.188555      8.808279
  Au     11.715372      8.683686     11.086126
  Au     11.689741      6.474605      9.357685
  Au      9.689363      5.334280      7.959574
  Au     11.320376      9.214771      8.359315
  Au      9.267471      8.634626      6.712869
  Fe      9.413238      7.668722      9.162490
13
Coordinates from ORCA-job pbe E -2893.387169616936
  Au      9.182665      9.775338     10.620778
  Au      9.519573      7.046670     11.658563
  Au      7.719880      5.848349     10.068549
  Au      7.252459      6.708668      7.363954
  Au      6.544273      8.980265      6.112164
  Au      7.178387      4.110637      7.954296
  Au      7.291650      9.210661      8.805361
  Au     11.721190      8.685661     11.091968
  Au     11.678512      6.476993      9.369318
  Au      9.698518      5.318249      7.974696
  Au     11.310753      9.215165      8.368801
  Au      9.269371      8.659148      6.716000
  Fe      9.383898      7.655644      9.138923
13
Coordinates from ORCA-job pbe E -2893.387873192574
  Au      9.183941      9.758948     10.613918
  Au      9.517881      7.056247     11.643101
  Au      7.731881      5.818047     10.082455
  Au      7.267487      6.717055      7.376231
  Au      6.545030      8.960197      6.117684
  Au      7.171921      4.125397      7.944339
  Au      7.294606      9.243323      8.792082
  Au     11.735360      8.689779     11.103999
  Au     11.665897      6.488632      9.364288
  Au      9.704197      5.289948      7.993587
  Au     11.299770      9.202601      8.375470
  Au      9.266536      8.693306      6.711113
  Fe      9.366623      7.647970      9.125100
13
Coordinates from ORCA-job pbe E -2893.388489289544
  Au      9.191480      9.748905     10.604034
  Au      9.522675      7.059769     11.627933
  Au      7.739523      5.788983     10.098244
  Au      7.278604      6.723794      7.385893
  Au      6.541738      8.940430      6.118758
  Au      7.166276      4.133285      7.935191
  Au      7.294282      9.279146      8.782237
  Au     11.752718      8.694853     11.119217
  Au     11.652516      6.495788      9.367375
  Au      9.711683      5.261935      8.008210
  Au     11.289608      9.195986      8.386560
  Au      9.265236      8.729385      6.702155
  Fe      9.344791      7.639190      9.107561
13
Coordinates from ORCA-job pbe E -2893.389068559791
  Au      9.202178      9.740465     10.590435
  Au      9.531972      7.061096     11.610989
  Au      7.746080      5.758746     10.112982
  Au      7.291628      6.731030      7.397660
  Au      6.538860      8.933102      6.116983
  Au      7.162631      4.130576      7.930229
  Au      7.293623      9.314059      8.772306
  Au     11.768627      8.701004     11.133074
  Au     11.637406      6.502269      9.375914
  Au      9.718164      5.233279      8.022238
  Au     11.276230      9.191320      8.399251
  Au      9.263726      8.765609      6.693583
  Fe      9.320005      7.628894      9.087725
13
Coordinates from ORCA-job pbe E -2893.389549275443
  Au      9.223237      9.734328     10.569864
  Au      9.552998      7.056999     11.587346
  Au      7.745228      5.736880     10.127281
  Au      7.294637      6.733345      7.401424
  Au      6.537597      8.937117      6.113783
  Au      7.163957      4.120615      7.931166
  Au      7.286109      9.340153      8.767557
  Au     11.791996      8.711989     11.152727
  Au     11.616347      6.507889      9.398985
  Au      9.725752      5.211088      8.026952
  Au     11.258896      9.190770      8.420738
  Au      9.263281      8.793185      6.681088
  Fe      9.291094      7.617092      9.064456
13
Coordinates from ORCA-job pbe E -2893.389692505056
  Au      9.230345      9.730032     10.560635
  Au      9.561329      7.056518     11.577397
  Au      7.760957      5.709484     10.129924
  Au      7.312684      6.740177      7.418134
  Au      6.530827      8.945535      6.104996
  Au      7.159100      4.112142      7.928110
  Au      7.295905      9.362862      8.752551
  Au     11.798889      8.717406     11.158155
  Au     11.606769      6.512497      9.408671
  Au      9.723979      5.188921      8.048394
  Au     11.250310      9.189058      8.427491
  Au      9.254722      8.821773      6.685274
  Fe      9.265314      7.605043      9.043636
13
Coordinates from ORCA-job pbe E -2893.389754484685
  Au      9.251131      9.730151     10.543674
  Au      9.588883      7.048923     11.559751
  Au      7.745250      5.721599     10.131955
  Au      7.289247      6.730847      7.399220
  Au      6.536534      8.955011      6.107441
  Au      7.166900      4.106128      7.934340
  Au      7.282641      9.351836      8.765144
  Au     11.822412      8.731634     11.176454
  Au     11.590093      6.513881      9.440643
  Au      9.728334      5.197028      8.030819
  Au     11.237842      9.193625      8.444724
  Au      9.261372      8.811349      6.677584
  Fe      9.250488      7.599436      9.031620
13
Coordinates from ORCA-job pbe E -2893.389792466547
  Au      9.241124      9.730905     10.555960
  Au      9.576295      7.051426     11.569588
  Au      7.748973      5.726540     10.128475
  Au      7.291618      6.732314      7.401039
  Au      6.534821      8.949978      6.107142
  Au      7.165031      4.110664      7.932457
  Au      7.285702      9.346998      8.763843
  Au     11.813197      8.727050     11.168167
  Au     11.598846      6.511230      9.427842
  Au      9.726303      5.202669      8.032193
  Au     11.247917      9.191515      8.435889
  Au      9.259370      8.805580      6.680105
  Fe      9.261932      7.604578      9.040672
13
Coordinates from ORCA-job pbe E -2893.389799641284
  Au      9.240275      9.729551     10.553233
  Au      9.577629      7.050711     11.567263
  Au      7.750641      5.724790     10.128913
  Au      7.293700      6.733664      7.403356
  Au      6.537669      8.953032      6.108933
  Au      7.167215      4.110881      7.933585
  Au      7.287373      9.348003      8.764367
  Au     11.812507      8.728836     11.166682
  Au     11.595900      6.511015      9.430326
  Au      9.726647      5.201468      8.033847
  Au     11.245205      9.190007      8.434980
  Au      9.259855      8.807424      6.681606
  Fe      9.256512      7.602067      9.036279
13
Coordinates from ORCA-job pbe E -2893.389805751182
  Au      9.241137      9.727705     10.554744
  Au      9.579733      7.052263     11.566515
  Au      7.750387      5.725213     10.128118
  Au      7.290912      6.733072      7.401262
  Au      6.537270      8.954110      6.108371
  Au      7.166623      4.110434      7.933046
  Au      7.286558      9.346340      8.764774
  Au     11.814918      8.731464     11.167826
  Au     11.595274      6.512442      9.433051
  Au      9.726423      5.202166      8.033019
  Au     11.245998      9.188087      8.435859
  Au      9.259872      8.806216      6.681052
  Fe      9.256024      7.601935      9.035732
13
Coordinates from ORCA-job pbe E -2893.389809851302
  Au      9.240305      9.726279     10.556914
  Au      9.580922      7.052430     11.566076
  Au      7.749529      5.727456     10.128264
  Au      7.288653      6.733367      7.399832
  Au      6.538064      8.956084      6.108726
  Au      7.167447      4.110388      7.933412
  Au      7.284568      9.343597      8.766912
  Au     11.816259      8.734373     11.167367
  Au     11.594301      6.511839      9.436243
  Au      9.727454      5.204315      8.030504
  Au     11.247117      9.186008      8.434993
  Au      9.261027      8.803305      6.679170
  Fe      9.255484      7.602007      9.034956
