17
Coordinates from ORCA-job pbe E -3436.739830644387
  Au      9.033355      6.282222      7.152820
  Au      8.418968      8.361585      9.018747
  Au      6.885991      5.940809      8.996654
  Au      6.556787      5.041545      6.289373
  Au      9.448062      9.132363      6.529099
  Au     10.502785      7.036341      4.916844
  Au      9.119784      9.146598      3.648532
  Au      7.751234      6.781708      4.414670
  Au      4.349091      6.464736      7.543264
  Au      4.468590      9.119332      6.509536
  Au      5.558618      8.526929      9.133361
  Au      4.975645      6.897224      4.780755
  Au      7.059848     10.350453      7.586827
  Au      8.200911     11.300771      5.168536
  Au      5.434016     11.582280      5.656866
  Au      6.336675      9.286080      4.237409
  Fe      6.714446      7.652301      6.877976
17
Coordinates from ORCA-job pbe E -3436.742274475358
  Au      9.023562      6.289817      7.139592
  Au      8.395507      8.360385      8.993542
  Au      6.892178      5.970070      8.975284
  Au      6.555885      5.059843      6.296312
  Au      9.424468      9.125966      6.526435
  Au     10.478118      7.042947      4.928436
  Au      9.098604      9.140462      3.674011
  Au      7.744968      6.797736      4.427606
  Au      4.375655      6.478759      7.523245
  Au      4.485717      9.122080      6.512864
  Au      5.567186      8.517250      9.117225
  Au      5.002230      6.903178      4.801912
  Au      7.065176     10.333478      7.574903
  Au      8.193998     11.268946      5.179241
  Au      5.444439     11.557843      5.663062
  Au      6.347159      9.275073      4.256622
  Fe      6.719952      7.659446      6.870976
17
Coordinates from ORCA-job pbe E -3436.743061986800
  Au      9.029919      6.280687      7.118744
  Au      8.390862      8.360294      8.989163
  Au      6.894671      5.972158      8.980324
  Au      6.552579      5.048518      6.306081
  Au      9.410616      9.122025      6.522818
  Au     10.487813      7.045921      4.933783
  Au      9.091540      9.145031      3.683965
  Au      7.749475      6.815574      4.428555
  Au      4.372923      6.475350      7.518600
  Au      4.488427      9.143626      6.522021
  Au      5.556331      8.509809      9.125111
  Au      5.007177      6.904447      4.806592
  Au      7.072540     10.332232      7.558284
  Au      8.195020     11.255192      5.177275
  Au      5.437934     11.559659      5.653460
  Au      6.354504      9.270051      4.268789
  Fe      6.722472      7.662705      6.867702
17
Coordinates from ORCA-job pbe E -3436.743750127946
  Au      9.027849      6.260343      7.096870
  Au      8.374056      8.351844      8.981390
  Au      6.902013      5.981125      8.977340
  Au      6.548595      5.042211      6.325103
  Au      9.395088      9.110836      6.522493
  Au     10.515837      7.038180      4.935022
  Au      9.101136      9.147676      3.680371
  Au      7.758155      6.828772      4.430575
  Au      4.376429      6.479816      7.508073
  Au      4.489827      9.163446      6.545128
  Au      5.543520      8.494078      9.127092
  Au      5.014979      6.902852      4.825337
  Au      7.074168     10.333283      7.542557
  Au      8.193433     11.261897      5.170771
  Au      5.417313     11.576945      5.642701
  Au      6.356718      9.263161      4.286866
  Fe      6.725687      7.666813      6.863580
17
Coordinates from ORCA-job pbe E -3436.744275500659
  Au      9.025037      6.244115      7.073866
  Au      8.368439      8.347164      8.976790
  Au      6.908735      5.972340      8.982880
  Au      6.550013      5.034580      6.333009
  Au      9.378901      9.094720      6.516683
  Au     10.535559      7.041171      4.935433
  Au      9.116281      9.148918      3.680553
  Au      7.773765      6.837622      4.438551
  Au      4.364592      6.481089      7.509723
  Au      4.494829      9.182814      6.565946
  Au      5.532940      8.490351      9.130401
  Au      5.017213      6.904514      4.833252
  Au      7.066043     10.334822      7.524632
  Au      8.186024     11.269500      5.161034
  Au      5.407730     11.587604      5.628536
  Au      6.359831      9.261110      4.310422
  Fe      6.728871      7.670844      6.859557
17
Coordinates from ORCA-job pbe E -3436.744587518762
  Au      9.020484      6.226744      7.059134
  Au      8.359312      8.344574      8.973485
  Au      6.910098      5.965208      8.983742
  Au      6.543127      5.033206      6.337937
  Au      9.361392      9.078808      6.508951
  Au     10.557230      7.048247      4.931389
  Au      9.131176      9.157300      3.679907
  Au      7.787468      6.840400      4.448343
  Au      4.359217      6.482351      7.515017
  Au      4.494818      9.194536      6.586386
  Au      5.532626      8.482326      9.134691
  Au      5.022205      6.902867      4.841304
  Au      7.053863     10.335124      7.511804
  Au      8.184193     11.276083      5.146716
  Au      5.401800     11.602588      5.610692
  Au      6.364882      9.259521      4.334855
  Fe      6.730913      7.673395      6.856914
17
Coordinates from ORCA-job pbe E -3436.744730412750
  Au      9.018735      6.218651      7.054787
  Au      8.356792      8.346518      8.970442
  Au      6.909174      5.961467      8.981489
  Au      6.532858      5.033127      6.336221
  Au      9.347232      9.066982      6.502823
  Au     10.565633      7.054550      4.930948
  Au      9.142133      9.162178      3.678019
  Au      7.796857      6.838881      4.454177
  Au      4.358723      6.484015      7.520063
  Au      4.493110      9.198358      6.594598
  Au      5.539222      8.477581      9.141365
  Au      5.026026      6.903716      4.842654
  Au      7.043196     10.336077      7.505440
  Au      8.182743     11.281954      5.139031
  Au      5.401081     11.605989      5.600269
  Au      6.369208      9.258263      4.353691
  Fe      6.732081      7.674970      6.855251
17
Coordinates from ORCA-job pbe E -3436.744831581947
  Au      9.016746      6.213967      7.059170
  Au      8.358246      8.351576      8.970586
  Au      6.908797      5.961062      8.977457
  Au      6.525902      5.033151      6.331597
  Au      9.334070      9.058884      6.496350
  Au     10.565733      7.057956      4.930987
  Au      9.147795      9.166654      3.675011
  Au      7.802008      6.836574      4.455389
  Au      4.360904      6.485924      7.523718
  Au      4.486996      9.194138      6.597901
  Au      5.546691      8.476397      9.146566
  Au      5.028481      6.903627      4.839042
  Au      7.036034     10.338206      7.503799
  Au      8.185814     11.285197      5.135896
  Au      5.402458     11.607560      5.595478
  Au      6.375360      9.256644      4.368088
  Fe      6.732767      7.675760      6.854232
17
Coordinates from ORCA-job pbe E -3436.744924516576
  Au      9.016102      6.211600      7.068496
  Au      8.361924      8.359198      8.972741
  Au      6.910413      5.965199      8.972768
  Au      6.521557      5.033372      6.324721
  Au      9.318794      9.051861      6.488830
  Au     10.560259      7.055703      4.933188
  Au      9.152106      9.171169      3.667854
  Au      7.804030      6.833025      4.451650
  Au      4.364633      6.488114      7.524747
  Au      4.479060      9.187490      6.595808
  Au      5.554799      8.478956      9.149561
  Au      5.030366      6.903176      4.833906
  Au      7.029690     10.340900      7.505280
  Au      8.190297     11.288062      5.138629
  Au      5.404298     11.603592      5.597329
  Au      6.382924      9.255078      4.382762
  Fe      6.733551      7.676782      6.852997
17
Coordinates from ORCA-job pbe E -3436.744982974667
  Au      9.016751      6.212186      7.076160
  Au      8.366204      8.365802      8.975470
  Au      6.913583      5.970101      8.970369
  Au      6.524995      5.033287      6.321002
  Au      9.306785      9.047076      6.481901
  Au     10.549312      7.050169      4.936418
  Au      9.153453      9.172254      3.660706
  Au      7.802550      6.831528      4.445124
  Au      4.367941      6.488360      7.523847
  Au      4.470961      9.181404      6.591242
  Au      5.557339      8.482484      9.148014
  Au      5.031475      6.902013      4.829832
  Au      7.027136     10.343594      7.510470
  Au      8.196695     11.289334      5.145031
  Au      5.404689     11.602786      5.602174
  Au      6.390402      9.253594      4.391369
  Fe      6.734532      7.677309      6.852136
17
Coordinates from ORCA-job pbe E -3436.745017374640
  Au      9.018824      6.212271      7.081529
  Au      8.367663      8.369202      8.978523
  Au      6.916195      5.974670      8.971938
  Au      6.530998      5.033601      6.321472
  Au      9.299350      9.045933      6.476996
  Au     10.544076      7.043644      4.935963
  Au      9.153032      9.173810      3.653059
  Au      7.798926      6.830840      4.436835
  Au      4.369081      6.487343      7.521790
  Au      4.468164      9.180221      6.585335
  Au      5.554200      8.485797      9.143290
  Au      5.031400      6.901058      4.830326
  Au      7.026324     10.345151      7.515260
  Au      8.199229     11.288620      5.153421
  Au      5.406840     11.599248      5.607768
  Au      6.395381      9.254178      4.395738
  Fe      6.735119      7.677689      6.852024
17
Coordinates from ORCA-job pbe E -3436.745036574468
  Au      9.021097      6.213761      7.081109
  Au      8.366504      8.368587      8.978567
  Au      6.918264      5.976281      8.975486
  Au      6.538126      5.034114      6.324794
  Au      9.296581      9.044291      6.474021
  Au     10.538772      7.040396      4.935907
  Au      9.152654      9.172653      3.649365
  Au      7.796225      6.831631      4.431907
  Au      4.368904      6.484813      7.520597
  Au      4.467613      9.181723      6.581718
  Au      5.549190      8.485883      9.139023
  Au      5.031591      6.900607      4.833161
  Au      7.026849     10.346364      7.520525
  Au      8.201604     11.288431      5.158231
  Au      5.406782     11.601525      5.609088
  Au      6.398177      9.254790      4.395265
  Fe      6.735868      7.677429      6.852504
17
Coordinates from ORCA-job pbe E -3436.745045789666
  Au      9.022139      6.213639      7.080224
  Au      8.364595      8.367271      8.977892
  Au      6.918500      5.975570      8.978486
  Au      6.541490      5.034698      6.328202
  Au      9.295600      9.043386      6.472423
  Au     10.538973      7.040510      4.933144
  Au      9.152865      9.172856      3.647637
  Au      7.795008      6.831859      4.429855
  Au      4.368053      6.483103      7.521183
  Au      4.469603      9.183762      6.580534
  Au      5.544580      8.484715      9.136803
  Au      5.032240      6.901465      4.836245
  Au      7.026336     10.346959      7.522794
  Au      8.201305     11.287717      5.160411
  Au      5.408338     11.602999      5.607618
  Au      6.398948      9.255693      4.394504
  Fe      6.736230      7.677076      6.853313
17
Coordinates from ORCA-job pbe E -3436.745051778370
  Au      9.023081      6.213688      7.079266
  Au      8.362296      8.366166      8.976971
  Au      6.918633      5.974785      8.980674
  Au      6.542715      5.034884      6.330456
  Au      9.293757      9.041493      6.470640
  Au     10.539101      7.042015      4.930472
  Au      9.154281      9.173433      3.646438
  Au      7.795006      6.831498      4.429112
  Au      4.367545      6.481367      7.522559
  Au      4.471562      9.185399      6.579876
  Au      5.542244      8.483135      9.136457
  Au      5.032704      6.902330      4.838924
  Au      7.024320     10.347571      7.524517
  Au      8.200830     11.287058      5.162118
  Au      5.410520     11.605255      5.604612
  Au      6.399490      9.256639      4.393886
  Fe      6.736717      7.676563      6.854290
