11
E=  -1145.96218318;c=0;m=4
Au      9.498617535916100      7.364048958732020      9.411132305553441
Au      7.145325472115100      5.649606936548440      8.751022658530481
Au      5.720089853445130      7.713064514498190      7.782609655089370
Au      7.753350724167730      6.790077370510340      4.853300242899260
Au      9.724541559095430      4.630767625809840      9.111659796812400
Au      9.094368716079140      5.177656243270210      6.494202222522370
Au      8.369433693197060      9.458058893435959      5.718899928665020
Au      8.150025776005140      9.521251932026660      8.592455577688590
Au      5.979054915563490     10.445239374267350      7.143603891425000
Au      5.707948169823400      8.622017443800599      5.022009718879420
Mn      8.281993454592319      7.405693877100420      7.222890251934640
