11
Coordinates from ORCA-job pbe E -2509.010987248549
  Au      9.498618      7.364049      9.411132
  Au      7.145325      5.649607      8.751023
  Au      5.720090      7.713065      7.782610
  Au      7.753351      6.790077      4.853300
  Au      9.724542      4.630768      9.111660
  Au      9.094369      5.177656      6.494202
  Au      8.369434      9.458059      5.718900
  Au      8.150026      9.521252      8.592456
  Au      5.979055     10.445239      7.143604
  Au      5.707948      8.622017      5.022010
  Mn      8.281993      7.405694      7.222890
11
Coordinates from ORCA-job pbe E -2509.014586700379
  Au      9.523742      7.356622      9.437717
  Au      7.115287      5.668806      8.743242
  Au      5.735466      7.703633      7.775036
  Au      7.744618      6.802150      4.809644
  Au      9.703605      4.618011      9.118440
  Au      9.119800      5.139450      6.498183
  Au      8.360523      9.487471      5.711345
  Au      8.157175      9.561591      8.594895
  Au      5.968993     10.405181      7.121573
  Au      5.705930      8.621994      5.075507
  Mn      8.289612      7.412575      7.218204
11
Coordinates from ORCA-job pbe E -2509.016211857413
  Au      9.519535      7.360748      9.472173
  Au      7.117164      5.656676      8.753820
  Au      5.719102      7.702302      7.763874
  Au      7.775379      6.786058      4.772795
  Au      9.685843      4.637039      9.103207
  Au      9.108341      5.105227      6.482326
  Au      8.350445      9.519183      5.705788
  Au      8.205782      9.588493      8.616135
  Au      5.955945     10.407124      7.116608
  Au      5.694465      8.600489      5.098556
  Mn      8.292748      7.414143      7.218504
11
Coordinates from ORCA-job pbe E -2509.017388376259
  Au      9.494857      7.384545      9.505294
  Au      7.093512      5.666701      8.754784
  Au      5.712404      7.680463      7.765284
  Au      7.813078      6.779410      4.740777
  Au      9.678781      4.668995      9.081489
  Au      9.068588      5.080265      6.448308
  Au      8.321074      9.545667      5.707367
  Au      8.252502      9.616036      8.620136
  Au      5.982446     10.386430      7.136578
  Au      5.724154      8.548816      5.127519
  Mn      8.283353      7.420155      7.216251
11
Coordinates from ORCA-job pbe E -2509.017847992871
  Au      9.467760      7.400211      9.525992
  Au      7.094032      5.656823      8.767358
  Au      5.687200      7.670790      7.777420
  Au      7.845291      6.777700      4.723723
  Au      9.687938      4.702361      9.044211
  Au      9.028798      5.062428      6.438225
  Au      8.307671      9.552540      5.712455
  Au      8.277814      9.632581      8.613366
  Au      6.006752     10.376651      7.150775
  Au      5.753040      8.524843      5.130807
  Mn      8.268454      7.420555      7.219455
11
Coordinates from ORCA-job pbe E -2509.018186777892
  Au      9.447477      7.416564      9.538502
  Au      7.086457      5.654914      8.769851
  Au      5.663343      7.654713      7.801965
  Au      7.888455      6.790457      4.701539
  Au      9.695814      4.715751      9.036213
  Au      8.989182      5.048944      6.423148
  Au      8.315934      9.558070      5.711659
  Au      8.311054      9.650202      8.596599
  Au      6.006838     10.363971      7.169015
  Au      5.763355      8.501350      5.137065
  Mn      8.256840      7.422546      7.218230
11
Coordinates from ORCA-job pbe E -2509.018667346156
  Au      9.421840      7.431952      9.544757
  Au      7.088992      5.649252      8.770883
  Au      5.634897      7.640175      7.835553
  Au      7.948214      6.828428      4.676742
  Au      9.685608      4.735327      9.022643
  Au      8.934452      5.038430      6.414386
  Au      8.332028      9.559383      5.708567
  Au      8.350749      9.674585      8.562396
  Au      6.002721     10.322732      7.180174
  Au      5.784872      8.469507      5.171908
  Mn      8.240377      7.427712      7.215777
11
Coordinates from ORCA-job pbe E -2509.019072653045
  Au      9.400234      7.436429      9.544027
  Au      7.088819      5.639098      8.774699
  Au      5.603539      7.621510      7.879561
  Au      8.002657      6.877881      4.656923
  Au      9.690380      4.738534      9.003941
  Au      8.885698      5.033321      6.422274
  Au      8.357682      9.557699      5.698101
  Au      8.378324      9.702010      8.527845
  Au      5.995109     10.300259      7.178807
  Au      5.806995      8.438226      5.200270
  Mn      8.215314      7.432517      7.217339
11
Coordinates from ORCA-job pbe E -2509.019403416072
  Au      9.379093      7.443325      9.533701
  Au      7.090186      5.621232      8.780302
  Au      5.575001      7.610230      7.911893
  Au      8.053159      6.915072      4.638396
  Au      9.695198      4.734900      9.004171
  Au      8.850822      5.038227      6.420849
  Au      8.375886      9.559847      5.682202
  Au      8.396056      9.721049      8.498246
  Au      6.000001     10.284440      7.178946
  Au      5.825304      8.413389      5.239053
  Mn      8.184043      7.435773      7.216027
11
Coordinates from ORCA-job pbe E -2509.020013176497
  Au      9.361055      7.441998      9.510318
  Au      7.091049      5.607804      8.786153
  Au      5.556056      7.594861      7.950541
  Au      8.102161      6.944016      4.619285
  Au      9.677722      4.726258      9.002788
  Au      8.834104      5.058427      6.423444
  Au      8.396401      9.571702      5.657481
  Au      8.409644      9.741087      8.474488
  Au      6.006504     10.278030      7.183153
  Au      5.845830      8.371147      5.281772
  Mn      8.144224      7.442152      7.214362
11
Coordinates from ORCA-job pbe E -2509.020965860558
  Au      9.351801      7.429926      9.473014
  Au      7.082582      5.595505      8.798265
  Au      5.543594      7.599934      7.977356
  Au      8.128841      6.938328      4.606443
  Au      9.675032      4.701477      9.002310
  Au      8.848515      5.096624      6.430422
  Au      8.405122      9.594174      5.631933
  Au      8.408140      9.747774      8.475159
  Au      6.016566     10.288498      7.179336
  Au      5.872040      8.335251      5.314222
  Mn      8.092516      7.449994      7.215327
11
Coordinates from ORCA-job pbe E -2509.021913210030
  Au      9.349818      7.427713      9.435319
  Au      7.068129      5.590765      8.804122
  Au      5.529339      7.598715      8.012425
  Au      8.171121      6.942127      4.584624
  Au      9.656376      4.690924      9.003648
  Au      8.855884      5.122848      6.438105
  Au      8.400845      9.615607      5.613579
  Au      8.423424      9.749560      8.469760
  Au      6.024836     10.282349      7.186860
  Au      5.904170      8.296307      5.343177
  Mn      8.040809      7.460568      7.212167
11
Coordinates from ORCA-job pbe E -2509.023002628157
  Au      9.363979      7.414294      9.398418
  Au      7.050950      5.595108      8.804073
  Au      5.509691      7.612505      8.043538
  Au      8.206528      6.933148      4.565154
  Au      9.637562      4.674484      9.010386
  Au      8.880010      5.150982      6.448618
  Au      8.384050      9.637898      5.606003
  Au      8.438918      9.746370      8.468552
  Au      6.028679     10.274735      7.195188
  Au      5.931905      8.259493      5.358690
  Mn      7.992478      7.478466      7.205165
11
Coordinates from ORCA-job pbe E -2509.024119724304
  Au      9.387374      7.400786      9.359418
  Au      7.037061      5.608064      8.796649
  Au      5.479412      7.631145      8.074202
  Au      8.242354      6.933688      4.550837
  Au      9.617635      4.651423      9.020403
  Au      8.908055      5.177833      6.465990
  Au      8.366592      9.650699      5.605237
  Au      8.457140      9.736992      8.466120
  Au      6.029223     10.260617      7.200462
  Au      5.949673      8.224003      5.370525
  Mn      7.950230      7.502232      7.193943
11
Coordinates from ORCA-job pbe E -2509.025060191378
  Au      9.412405      7.373121      9.321359
  Au      7.031696      5.626412      8.784902
  Au      5.443575      7.649690      8.101932
  Au      8.269184      6.936342      4.547863
  Au      9.595664      4.621944      9.038152
  Au      8.946786      5.215257      6.482420
  Au      8.352935      9.655954      5.608716
  Au      8.474594      9.730785      8.459174
  Au      6.030913     10.247179      7.201325
  Au      5.952042      8.190810      5.377439
  Mn      7.914956      7.529989      7.180505
11
Coordinates from ORCA-job pbe E -2509.025742062097
  Au      9.436488      7.356879      9.273623
  Au      7.029436      5.645545      8.776550
  Au      5.406387      7.656937      8.125188
  Au      8.298962      6.959451      4.549530
  Au      9.571151      4.588444      9.055605
  Au      8.980361      5.252530      6.509743
  Au      8.345795      9.653220      5.604299
  Au      8.495705      9.718880      8.457985
  Au      6.038437     10.230509      7.199660
  Au      5.941160      8.159357      5.383951
  Mn      7.880868      7.555730      7.167654
11
Coordinates from ORCA-job pbe E -2509.026366508106
  Au      9.456316      7.323694      9.230324
  Au      7.029424      5.664039      8.774310
  Au      5.374396      7.657881      8.136773
  Au      8.314703      6.971004      4.560844
  Au      9.547027      4.558161      9.078494
  Au      9.027375      5.302882      6.532275
  Au      8.335073      9.652907      5.599854
  Au      8.519032      9.713843      8.457603
  Au      6.055512     10.215204      7.198883
  Au      5.915203      8.138492      5.376775
  Mn      7.850689      7.579377      7.157650
11
Coordinates from ORCA-job pbe E -2509.027094497312
  Au      9.457911      7.305401      9.189836
  Au      7.023002      5.673546      8.783910
  Au      5.341653      7.638534      8.145064
  Au      8.342139      7.004452      4.578780
  Au      9.526549      4.535722      9.089719
  Au      9.050885      5.352055      6.552889
  Au      8.333110      9.651252      5.580138
  Au      8.559642      9.718383      8.447590
  Au      6.084045     10.187683      7.202906
  Au      5.894383      8.112931      5.379384
  Mn      7.811432      7.597524      7.153571
11
Coordinates from ORCA-job pbe E -2509.027910942824
  Au      9.466554      7.288240      9.166432
  Au      7.021891      5.688187      8.805207
  Au      5.324016      7.606814      8.114634
  Au      8.331881      7.025727      4.597672
  Au      9.515847      4.520206      9.110682
  Au      9.080853      5.384205      6.581851
  Au      8.318929      9.657186      5.562863
  Au      8.606254      9.719056      8.461626
  Au      6.119695     10.154839      7.214377
  Au      5.842237      8.122194      5.337907
  Mn      7.796594      7.610829      7.150535
11
Coordinates from ORCA-job pbe E -2509.028718849364
  Au      9.454817      7.278034      9.146615
  Au      7.013989      5.682095      8.824534
  Au      5.300913      7.574867      8.098463
  Au      8.342472      7.036439      4.611935
  Au      9.501404      4.513637      9.119606
  Au      9.094915      5.425077      6.598175
  Au      8.307477      9.678111      5.536162
  Au      8.661447      9.731585      8.449847
  Au      6.157839     10.117283      7.235555
  Au      5.830113      8.115894      5.329853
  Mn      7.759364      7.624461      7.153042
11
Coordinates from ORCA-job pbe E -2509.029427806905
  Au      9.452043      7.269685      9.128380
  Au      7.007276      5.684026      8.832904
  Au      5.266214      7.543910      8.078846
  Au      8.351495      7.042582      4.621431
  Au      9.488683      4.508357      9.136483
  Au      9.114166      5.459668      6.622343
  Au      8.292103      9.694927      5.516931
  Au      8.719890      9.733996      8.429213
  Au      6.188811     10.075635      7.269814
  Au      5.817284      8.120589      5.317339
  Mn      7.726785      7.644109      7.150103
11
Coordinates from ORCA-job pbe E -2509.030078456076
  Au      9.449792      7.271396      9.128581
  Au      7.004711      5.681448      8.839671
  Au      5.232904      7.500362      8.045970
  Au      8.346338      7.037859      4.623040
  Au      9.478363      4.512434      9.160399
  Au      9.122063      5.474143      6.638404
  Au      8.277414      9.721176      5.501026
  Au      8.783729      9.738977      8.397283
  Au      6.205847     10.037126      7.317553
  Au      5.818019      8.143002      5.303026
  Mn      7.705571      7.659560      7.148835
11
Coordinates from ORCA-job pbe E -2509.030581626325
  Au      9.459032      7.262399      9.111331
  Au      7.003139      5.690126      8.836701
  Au      5.190106      7.461852      8.019451
  Au      8.344857      7.036796      4.639148
  Au      9.467262      4.509291      9.184688
  Au      9.141157      5.505180      6.665569
  Au      8.263565      9.730912      5.497232
  Au      8.841514      9.732595      8.356591
  Au      6.216449     10.003141      7.358845
  Au      5.814382      8.166998      5.286649
  Mn      7.683287      7.678195      7.147582
11
Coordinates from ORCA-job pbe E -2509.030981883646
  Au      9.466687      7.274362      9.124441
  Au      7.005790      5.691957      8.836621
  Au      5.167262      7.412055      7.973990
  Au      8.327165      7.027114      4.641794
  Au      9.462180      4.521765      9.210054
  Au      9.131884      5.491680      6.670934
  Au      8.253636      9.748616      5.503050
  Au      8.888746      9.736976      8.305762
  Au      6.206536      9.984044      7.410639
  Au      5.830438      8.208804      5.276177
  Mn      7.684425      7.680109      7.150324
11
Coordinates from ORCA-job pbe E -2509.031190197852
  Au      9.486016      7.270379      9.102240
  Au      7.005512      5.700121      8.836476
  Au      5.145314      7.370738      7.923719
  Au      8.310244      7.017905      4.662737
  Au      9.452960      4.524710      9.239484
  Au      9.141075      5.509689      6.697320
  Au      8.238606      9.758438      5.507889
  Au      8.933614      9.730612      8.263603
  Au      6.202944      9.958315      7.458599
  Au      5.834080      8.251524      5.257104
  Mn      7.674384      7.685052      7.154615
11
Coordinates from ORCA-job pbe E -2509.031257633948
  Au      9.487491      7.277513      9.104776
  Au      7.003047      5.699378      8.841821
  Au      5.147768      7.354937      7.900199
  Au      8.307408      7.022179      4.667188
  Au      9.458264      4.534826      9.246433
  Au      9.126047      5.496195      6.695619
  Au      8.234383      9.760477      5.508948
  Au      8.944400      9.734844      8.253847
  Au      6.205972      9.951894      7.472443
  Au      5.833790      8.267212      5.254466
  Mn      7.676180      7.678029      7.158048
11
Coordinates from ORCA-job pbe E -2509.031304644884
  Au      9.500040      7.277579      9.090426
  Au      7.004496      5.699229      8.843332
  Au      5.152219      7.352901      7.883384
  Au      8.309797      7.025085      4.672483
  Au      9.457013      4.535460      9.254004
  Au      9.121473      5.488823      6.700319
  Au      8.227394      9.757814      5.511221
  Au      8.939782      9.736787      8.257537
  Au      6.205786      9.959167      7.476427
  Au      5.829023      8.273835      5.254488
  Mn      7.677728      7.670804      7.160166
11
Coordinates from ORCA-job pbe E -2509.031327126984
  Au      9.504991      7.277163      9.082406
  Au      7.000940      5.700369      8.844589
  Au      5.149904      7.350027      7.878736
  Au      8.322589      7.032936      4.677485
  Au      9.455686      4.537001      9.255181
  Au      9.114336      5.484553      6.700789
  Au      8.223993      9.757151      5.511399
  Au      8.942238      9.742517      8.254529
  Au      6.211423      9.955039      7.479064
  Au      5.824875      8.270896      5.257767
  Mn      7.673775      7.669832      7.161842
11
Coordinates from ORCA-job pbe E -2509.031340345860
  Au      9.511506      7.277091      9.074623
  Au      7.000342      5.700009      8.844041
  Au      5.145480      7.352985      7.880737
  Au      8.329578      7.034161      4.678416
  Au      9.454975      4.536946      9.255694
  Au      9.112487      5.481580      6.700587
  Au      8.222062      9.756683      5.512076
  Au      8.938722      9.743019      8.257677
  Au      6.211428      9.957673      7.478048
  Au      5.826828      8.267577      5.258948
  Mn      7.671343      7.669760      7.162939
11
Coordinates from ORCA-job pbe E -2509.031347752482
  Au      9.518094      7.276149      9.066890
  Au      6.999863      5.701431      8.843511
  Au      5.141826      7.355105      7.883941
  Au      8.335481      7.035249      4.679085
  Au      9.452076      4.536829      9.256158
  Au      9.110920      5.478517      6.700337
  Au      8.221923      9.758320      5.512673
  Au      8.936397      9.744232      8.259716
  Au      6.208899      9.957596      7.478226
  Au      5.829249      8.263121      5.259032
  Mn      7.670023      7.670935      7.164217
11
Coordinates from ORCA-job pbe E -2509.031350324149
  Au      9.520657      7.276553      9.064198
  Au      6.999623      5.702716      8.844367
  Au      5.140324      7.354058      7.882880
  Au      8.335982      7.035456      4.680056
  Au      9.451456      4.537298      9.256966
  Au      9.109499      5.476232      6.699779
  Au      8.221538      9.760099      5.513247
  Au      8.936822      9.744537      8.259876
  Au      6.208133      9.955988      7.479006
  Au      5.830613      8.263189      5.257956
  Mn      7.670103      7.671357      7.165456
