16
E=  -1708.42305286;c=0;m=6
Au      8.726376606702390      6.075940972312290     10.224803490827171
Au     10.121313983357879      7.943077110171900      8.670288548350140
Au      4.424680632679340      5.790275759778920      8.387696419471981
Au      5.961140718102840      6.562153478473750     10.603969484531151
Au      5.331334549019740      8.470122290325770      8.569736531011941
Au      7.759351610977470      8.721728297368591     10.126620611652550
Au      7.007596214663350     10.773927512782750      8.420448153017469
Au      6.907411824479090      4.421753632584180      8.903113115958011
Au      8.608509874350970     10.563230933438840      6.077789527743220
Au      5.932125038766000      9.676048931350200      5.970255320814590
Au      7.277852734158570      7.273286331677780      5.078908196828290
Au      9.883450134561270      8.050672013907050      5.860742436027070
Au      4.573782755705120      7.275027038453780      6.035027892395310
Au      6.182558341787200      4.932423059381530      6.262500692161750
Au      8.660336960080141      5.902710878991220      7.263519863860940
Fe      7.853680450608570      8.516159309001459      7.436060035348520
