16
Coordinates from ORCA-job pbe E -3300.913213878717
  Au      8.793371      6.250082      9.958538
  Au     10.046229      8.254810      8.541571
  Au      4.482995      5.839601      8.369349
  Au      6.067463      6.686382     10.498261
  Au      5.166981      8.526171      8.588992
  Au      7.793247      8.840350     10.178052
  Au      6.814605     10.732016      8.460787
  Au      6.932548      4.516830      8.888049
  Au      8.802976     10.275540      6.573619
  Au      6.037372      9.666495      5.980912
  Au      7.260153      7.268783      5.036715
  Au      9.839643      7.837154      5.787896
  Au      4.637229      7.316476      6.036507
  Au      6.181117      4.998474      6.258797
  Au      8.735917      5.757661      7.177103
  Fe      7.619657      8.181711      7.556332
16
Coordinates from ORCA-job pbe E -3300.913436706461
  Au      8.791771      6.249123      9.953018
  Au     10.044904      8.264565      8.539436
  Au      4.489196      5.841870      8.368768
  Au      6.066502      6.682616     10.493440
  Au      5.166744      8.527332      8.591406
  Au      7.785963      8.841140     10.178536
  Au      6.813481     10.731701      8.463664
  Au      6.931080      4.520945      8.887761
  Au      8.806822     10.273798      6.579400
  Au      6.044708      9.664497      5.976698
  Au      7.260048      7.262500      5.038333
  Au      9.837842      7.838387      5.782714
  Au      4.641256      7.318368      6.043193
  Au      6.179337      5.000749      6.264315
  Au      8.735752      5.754623      7.173413
  Fe      7.616096      8.176324      7.557386
16
Coordinates from ORCA-job pbe E -3300.914031166367
  Au      8.794735      6.250474      9.937626
  Au     10.037247      8.296635      8.537319
  Au      4.491768      5.839941      8.372733
  Au      6.065820      6.672921     10.494367
  Au      5.160973      8.537536      8.601592
  Au      7.767702      8.845151     10.182632
  Au      6.810232     10.736756      8.467248
  Au      6.931567      4.517834      8.890806
  Au      8.823850     10.272352      6.602484
  Au      6.071120      9.665862      5.960065
  Au      7.263383      7.245848      5.033895
  Au      9.832187      7.837908      5.768620
  Au      4.643416      7.326042      6.056554
  Au      6.171268      4.995088      6.269479
  Au      8.740565      5.745495      7.157026
  Fe      7.605669      8.162692      7.559033
16
Coordinates from ORCA-job pbe E -3300.914627309684
  Au      8.796955      6.259445      9.913167
  Au     10.020280      8.323514      8.537994
  Au      4.495471      5.843246      8.377842
  Au      6.071518      6.669034     10.494063
  Au      5.156641      8.545617      8.612099
  Au      7.752385      8.844459     10.184140
  Au      6.802965     10.737289      8.462840
  Au      6.937300      4.518514      8.888284
  Au      8.840360     10.267698      6.632146
  Au      6.098876      9.660881      5.946287
  Au      7.262195      7.228796      5.029604
  Au      9.825906      7.834218      5.765206
  Au      4.650137      7.335802      6.073138
  Au      6.164681      4.993447      6.272611
  Au      8.741954      5.738688      7.141387
  Fe      7.593880      8.147889      7.560673
16
Coordinates from ORCA-job pbe E -3300.915181894348
  Au      8.802723      6.269799      9.886973
  Au     10.004956      8.349636      8.539493
  Au      4.493519      5.845060      8.386616
  Au      6.075402      6.663917     10.499609
  Au      5.150586      8.551124      8.623887
  Au      7.743056      8.848701     10.186854
  Au      6.792179     10.741268      8.452885
  Au      6.941241      4.512476      8.884205
  Au      8.857892     10.263988      6.663383
  Au      6.127991      9.654179      5.931867
  Au      7.258325      7.212846      5.020820
  Au      9.827118      7.836617      5.765948
  Au      4.656905      7.347440      6.089324
  Au      6.154621      4.987685      6.271938
  Au      8.741969      5.728702      7.126712
  Fe      7.583020      8.135100      7.560966
16
Coordinates from ORCA-job pbe E -3300.915620624611
  Au      8.806127      6.280705      9.858778
  Au      9.994984      8.372352      8.543997
  Au      4.493882      5.846169      8.396596
  Au      6.083168      6.657608     10.505460
  Au      5.145756      8.554631      8.636400
  Au      7.732420      8.854682     10.188682
  Au      6.780522     10.743262      8.441852
  Au      6.944705      4.508623      8.879706
  Au      8.871297     10.263601      6.691989
  Au      6.157905      9.648548      5.914884
  Au      7.259197      7.199527      5.012318
  Au      9.818221      7.832575      5.773338
  Au      4.666791      7.360038      6.105760
  Au      6.144746      4.982849      6.270248
  Au      8.739723      5.720527      7.110640
  Fe      7.572058      8.122839      7.560830
16
Coordinates from ORCA-job pbe E -3300.916005375435
  Au      8.806999      6.289724      9.833244
  Au      9.992426      8.391294      8.552105
  Au      4.494275      5.847883      8.405585
  Au      6.092449      6.651050     10.512340
  Au      5.143134      8.556447      8.649583
  Au      7.721986      8.860678     10.190005
  Au      6.766269     10.743305      8.433025
  Au      6.943982      4.504739      8.877000
  Au      8.879089     10.267288      6.712368
  Au      6.187133      9.644950      5.896214
  Au      7.259121      7.183021      5.003832
  Au      9.818010      7.839413      5.778488
  Au      4.678557      7.372079      6.121867
  Au      6.130692      4.977871      6.268742
  Au      8.734814      5.707780      7.095843
  Fe      7.562566      8.111015      7.561239
16
Coordinates from ORCA-job pbe E -3300.916371941676
  Au      8.806287      6.297733      9.808077
  Au      9.996963      8.407000      8.562052
  Au      4.495635      5.848192      8.413916
  Au      6.101156      6.641297     10.520659
  Au      5.141339      8.554090      8.666018
  Au      7.712983      8.868783     10.190422
  Au      6.754768     10.746735      8.422670
  Au      6.941064      4.500132      8.872099
  Au      8.879620     10.274837      6.721465
  Au      6.215333      9.643778      5.875297
  Au      7.263327      7.168207      4.997143
  Au      9.808818      7.843092      5.795701
  Au      4.694194      7.384668      6.138341
  Au      6.116987      4.973273      6.265491
  Au      8.728203      5.696260      7.079943
  Fe      7.554825      8.100461      7.562186
16
Coordinates from ORCA-job pbe E -3300.916677024831
  Au      8.801086      6.304675      9.784559
  Au     10.001135      8.424536      8.574381
  Au      4.497424      5.848993      8.422454
  Au      6.111412      6.632348     10.529802
  Au      5.143361      8.553566      8.684589
  Au      7.704322      8.874441     10.187079
  Au      6.740623     10.742841      8.413859
  Au      6.936998      4.496395      8.868357
  Au      8.878367     10.284631      6.726719
  Au      6.240847      9.644939      5.853480
  Au      7.269838      7.154356      4.990206
  Au      9.804064      7.848881      5.810655
  Au      4.711659      7.398347      6.154984
  Au      6.101630      4.966919      6.262724
  Au      8.719564      5.681834      7.064355
  Fe      7.549172      8.090837      7.563278
16
Coordinates from ORCA-job pbe E -3300.916924498360
  Au      8.796002      6.311820      9.761480
  Au     10.001240      8.445987      8.585468
  Au      4.499579      5.849197      8.428722
  Au      6.118221      6.620565     10.540035
  Au      5.143113      8.550103      8.705902
  Au      7.696647      8.878624     10.184753
  Au      6.730458     10.747550      8.403475
  Au      6.933899      4.491976      8.862817
  Au      8.880156     10.292354      6.730636
  Au      6.263733      9.645358      5.831640
  Au      7.275128      7.141088      4.985254
  Au      9.800180      7.850935      5.825847
  Au      4.730468      7.409754      6.173664
  Au      6.086314      4.962302      6.259130
  Au      8.711419      5.668355      7.048634
  Fe      7.544947      8.082571      7.564025
16
Coordinates from ORCA-job pbe E -3300.917139629179
  Au      8.790482      6.319088      9.738046
  Au      9.998712      8.468848      8.596641
  Au      4.500851      5.850103      8.436748
  Au      6.123447      6.609412     10.553149
  Au      5.144709      8.549179      8.728825
  Au      7.688796      8.882947     10.181461
  Au      6.719393     10.741992      8.390212
  Au      6.931962      4.487148      8.856927
  Au      8.882198     10.299906      6.733332
  Au      6.285580      9.646610      5.811117
  Au      7.281349      7.130264      4.980181
  Au      9.796693      7.852136      5.842348
  Au      4.751099      7.423107      6.192506
  Au      6.071194      4.956301      6.254121
  Au      8.702688      5.654880      7.032198
  Fe      7.542348      8.076617      7.563668
16
Coordinates from ORCA-job pbe E -3300.917326285823
  Au      8.784143      6.326704      9.714864
  Au      9.992605      8.493222      8.606981
  Au      4.503681      5.850318      8.445246
  Au      6.128005      6.596301     10.566796
  Au      5.144050      8.546860      8.753239
  Au      7.677633      8.882908     10.181629
  Au      6.711322     10.740372      8.375761
  Au      6.931939      4.484613      8.851270
  Au      8.887257     10.306826      6.734534
  Au      6.305924      9.649194      5.789933
  Au      7.285736      7.121261      4.974916
  Au      9.797696      7.850199      5.856315
  Au      4.771265      7.435476      6.211614
  Au      6.056212      4.949771      6.249954
  Au      8.693481      5.641820      7.016067
  Fe      7.540552      8.072693      7.562360
16
Coordinates from ORCA-job pbe E -3300.917489691485
  Au      8.780038      6.335157      9.693594
  Au      9.985477      8.518300      8.616697
  Au      4.506239      5.851982      8.451884
  Au      6.129781      6.581904     10.583516
  Au      5.143307      8.544559      8.778441
  Au      7.665009      8.883171     10.184755
  Au      6.704578     10.731468      8.360610
  Au      6.931572      4.481831      8.844891
  Au      8.892782     10.312125      6.729031
  Au      6.325212      9.651878      5.769381
  Au      7.289244      7.113653      4.971832
  Au      9.798819      7.848106      5.871499
  Au      4.792969      7.447887      6.231491
  Au      6.040887      4.945092      6.244298
  Au      8.685165      5.630097      6.999190
  Fe      7.540422      8.071327      7.560369
16
Coordinates from ORCA-job pbe E -3300.917625899350
  Au      8.774865      6.344584      9.672005
  Au      9.975378      8.542571      8.627577
  Au      4.509995      5.852475      8.460471
  Au      6.133203      6.565313     10.599570
  Au      5.140740      8.541548      8.804215
  Au      7.648625      8.881325     10.190924
  Au      6.702868     10.721108      8.344497
  Au      6.933145      4.482171      8.839033
  Au      8.899512     10.318541      6.722286
  Au      6.343656      9.655545      5.746651
  Au      7.291867      7.109183      4.967173
  Au      9.802140      7.842993      5.884903
  Au      4.812721      7.461332      6.250796
  Au      6.026863      4.938941      6.239929
  Au      8.675817      5.618911      6.983757
  Fe      7.540106      8.071997      7.557693
16
Coordinates from ORCA-job pbe E -3300.917734851759
  Au      8.771402      6.354852      9.652306
  Au      9.964596      8.567506      8.639344
  Au      4.513127      5.853849      8.466915
  Au      6.137019      6.547408     10.616832
  Au      5.137469      8.537870      8.829680
  Au      7.631690      8.879982     10.200865
  Au      6.701776     10.706201      8.329215
  Au      6.933986      4.482203      8.833001
  Au      8.909332     10.323433      6.710195
  Au      6.362089      9.658244      5.721808
  Au      7.292477      7.105400      4.963218
  Au      9.804049      7.839106      5.899377
  Au      4.832090      7.473735      6.271105
  Au      6.012519      4.935570      6.234561
  Au      8.667484      5.608716      6.968294
  Fe      7.540397      8.074463      7.554764
16
Coordinates from ORCA-job pbe E -3300.917808854885
  Au      8.767146      6.365156      9.633174
  Au      9.953448      8.592188      8.653022
  Au      4.515828      5.854350      8.474151
  Au      6.141935      6.528436     10.633057
  Au      5.133563      8.532549      8.856023
  Au      7.615116      8.879072     10.212364
  Au      6.705159     10.687691      8.311256
  Au      6.934093      4.482382      8.827094
  Au      8.917214     10.331610      6.696934
  Au      6.380555      9.661416      5.695541
  Au      7.292619      7.103015      4.957812
  Au      9.805504      7.834200      5.914088
  Au      4.850903      7.486828      6.291708
  Au      5.999568      4.932638      6.229388
  Au      8.658397      5.598259      6.954607
  Fe      7.540453      8.078747      7.551261
16
Coordinates from ORCA-job pbe E -3300.917984977882
  Au      8.769367      6.374502      9.611690
  Au      9.946772      8.634135      8.647694
  Au      4.517477      5.856477      8.477605
  Au      6.146671      6.516129     10.637277
  Au      5.128797      8.533714      8.872675
  Au      7.600134      8.879090     10.219225
  Au      6.696857     10.680804      8.313910
  Au      6.933456      4.481066      8.826459
  Au      8.928825     10.330513      6.710833
  Au      6.410302      9.660645      5.676071
  Au      7.295489      7.085559      4.953489
  Au      9.796095      7.828226      5.914964
  Au      4.864908      7.507344      6.303736
  Au      5.989096      4.930292      6.230257
  Au      8.656326      5.584795      6.942384
  Fe      7.530930      8.065246      7.553212
16
Coordinates from ORCA-job pbe E -3300.918172198482
  Au      8.767605      6.390504      9.587737
  Au      9.939760      8.662316      8.663098
  Au      4.517867      5.858787      8.480187
  Au      6.154959      6.501437     10.650659
  Au      5.123977      8.524572      8.899375
  Au      7.593550      8.879378     10.226720
  Au      6.692178     10.664494      8.302320
  Au      6.932294      4.479815      8.820151
  Au      8.927624     10.342427      6.698427
  Au      6.437576      9.661352      5.652729
  Au      7.296887      7.074496      4.948164
  Au      9.790832      7.822037      5.933213
  Au      4.888807      7.527913      6.319553
  Au      5.973761      4.929809      6.224148
  Au      8.646270      5.568795      6.931112
  Fe      7.527554      8.060405      7.553885
16
Coordinates from ORCA-job pbe E -3300.918359288842
  Au      8.771811      6.408176      9.569261
  Au      9.933818      8.686708      8.669924
  Au      4.515772      5.860321      8.473929
  Au      6.166361      6.494683     10.651571
  Au      5.113076      8.513547      8.918048
  Au      7.599559      8.876413     10.238731
  Au      6.692218     10.640899      8.296258
  Au      6.932247      4.483308      8.820061
  Au      8.927540     10.352277      6.687219
  Au      6.464326      9.662512      5.636136
  Au      7.292957      7.061902      4.940373
  Au      9.775766      7.824317      5.955927
  Au      4.902160      7.548205      6.321977
  Au      5.962395      4.935455      6.222991
  Au      8.641093      5.551113      6.930453
  Fe      7.520404      8.048704      7.558620
16
Coordinates from ORCA-job pbe E -3300.918489253294
  Au      8.773113      6.420742      9.549314
  Au      9.923558      8.720480      8.680005
  Au      4.515931      5.861868      8.472742
  Au      6.172534      6.481730     10.659037
  Au      5.105882      8.507385      8.944401
  Au      7.591460      8.872407     10.254381
  Au      6.694072     10.614908      8.283468
  Au      6.932984      4.484738      8.818399
  Au      8.937752     10.368659      6.677024
  Au      6.486097      9.662259      5.609970
  Au      7.292672      7.053425      4.933746
  Au      9.766559      7.816356      5.971644
  Au      4.918551      7.567135      6.335911
  Au      5.949246      4.938775      6.221242
  Au      8.635914      5.535323      6.919640
  Fe      7.515176      8.042347      7.560557
16
Coordinates from ORCA-job pbe E -3300.918633687072
  Au      8.780357      6.425730      9.536933
  Au      9.913166      8.745993      8.684349
  Au      4.513177      5.860546      8.468162
  Au      6.174577      6.477471     10.655244
  Au      5.096374      8.504492      8.963644
  Au      7.589667      8.867405     10.272042
  Au      6.703093     10.586120      8.271445
  Au      6.934537      4.486154      8.821785
  Au      8.952739     10.387074      6.666521
  Au      6.500807      9.660514      5.590401
  Au      7.290766      7.046518      4.928607
  Au      9.753062      7.819386      5.986924
  Au      4.921317      7.583437      6.342991
  Au      5.944773      4.945873      6.225181
  Au      8.635832      5.519695      6.912017
  Fe      7.507259      8.032127      7.565232
16
Coordinates from ORCA-job pbe E -3300.918743258849
  Au      8.784190      6.428433      9.520040
  Au      9.897744      8.768968      8.691125
  Au      4.511204      5.859023      8.469080
  Au      6.176774      6.472474     10.652794
  Au      5.089762      8.503881      8.982244
  Au      7.584351      8.865070     10.283159
  Au      6.708319     10.566573      8.260421
  Au      6.937220      4.485498      8.822426
  Au      8.966258     10.402329      6.657296
  Au      6.522197      9.657262      5.572318
  Au      7.290418      7.039002      4.925920
  Au      9.741515      7.822366      6.000922
  Au      4.927024      7.597624      6.356815
  Au      5.940725      4.950664      6.228177
  Au      8.634733      5.506723      6.899886
  Fe      7.499068      8.022646      7.568856
16
Coordinates from ORCA-job pbe E -3300.918846835103
  Au      8.791004      6.422232      9.511565
  Au      9.881987      8.780606      8.692507
  Au      4.507043      5.856714      8.468765
  Au      6.178085      6.475149     10.642587
  Au      5.084672      8.508154      8.991262
  Au      7.584252      8.861677     10.290416
  Au      6.715652     10.555814      8.248862
  Au      6.939966      4.482453      8.824517
  Au      8.975819     10.418280      6.649858
  Au      6.537297      9.648075      5.567389
  Au      7.287229      7.033956      4.926662
  Au      9.733706      7.830788      6.013819
  Au      4.923863      7.607653      6.364876
  Au      5.942388      4.958825      6.233374
  Au      8.639682      5.497855      6.890651
  Fe      7.488857      8.010306      7.574372
16
Coordinates from ORCA-job pbe E -3300.918927119947
  Au      8.792767      6.422945      9.492968
  Au      9.860604      8.799995      8.700568
  Au      4.504561      5.856697      8.473963
  Au      6.183522      6.469926     10.641568
  Au      5.080511      8.510851      9.008456
  Au      7.577419      8.859884     10.295400
  Au      6.717330     10.544966      8.238545
  Au      6.942882      4.478670      8.820162
  Au      8.987103     10.435857      6.639388
  Au      6.562726      9.639090      5.553625
  Au      7.287650      7.026493      4.924725
  Au      9.726350      7.833711      6.029593
  Au      4.932727      7.620339      6.381590
  Au      5.936093      4.962048      6.235954
  Au      8.639232      5.486608      6.877034
  Fe      7.480022      8.000458      7.577941
16
Coordinates from ORCA-job pbe E -3300.918980620698
  Au      8.797885      6.423324      9.479360
  Au      9.843077      8.818738      8.701947
  Au      4.502367      5.858570      8.476028
  Au      6.189823      6.465214     10.636842
  Au      5.075561      8.514126      9.022647
  Au      7.572289      8.856759     10.302476
  Au      6.721701     10.534461      8.224211
  Au      6.944389      4.476073      8.816288
  Au      8.994887     10.452875      6.633421
  Au      6.586277      9.630943      5.547564
  Au      7.285409      7.015418      4.922431
  Au      9.720406      7.839187      6.046284
  Au      4.936891      7.631991      6.392217
  Au      5.929389      4.967525      6.239984
  Au      8.641816      5.476732      6.866088
  Fe      7.469335      7.986600      7.583692
16
Coordinates from ORCA-job pbe E -3300.919028870503
  Au      8.801868      6.427390      9.463251
  Au      9.823029      8.841915      8.706331
  Au      4.500338      5.863542      8.480429
  Au      6.198658      6.456094     10.637383
  Au      5.069490      8.516092      9.041779
  Au      7.564544      8.853419     10.311477
  Au      6.724484     10.517808      8.213262
  Au      6.946451      4.474395      8.809962
  Au      9.007042     10.474800      6.621373
  Au      6.611306      9.620860      5.535260
  Au      7.285238      7.004420      4.917294
  Au      9.711703      7.841765      6.066092
  Au      4.947326      7.646444      6.402805
  Au      5.919087      4.971475      6.241482
  Au      8.641555      5.464283      6.854964
  Fe      7.459384      7.973836      7.588337
16
Coordinates from ORCA-job pbe E -3300.919081501897
  Au      8.808365      6.430233      9.456565
  Au      9.806059      8.857813      8.705257
  Au      4.499803      5.870709      8.483742
  Au      6.205872      6.448517     10.636292
  Au      5.063318      8.518822      9.052890
  Au      7.558008      8.850892     10.318025
  Au      6.730355     10.505525      8.208474
  Au      6.948465      4.474527      8.802835
  Au      9.017953     10.493765      6.612606
  Au      6.629680      9.613772      5.531807
  Au      7.285121      6.994183      4.912373
  Au      9.704413      7.843201      6.079152
  Au      4.949426      7.654109      6.405563
  Au      5.911218      4.973922      6.243803
  Au      8.643474      5.457246      6.849409
  Fe      7.449974      7.961299      7.592688
16
Coordinates from ORCA-job pbe E -3300.919181091880
  Au      8.818725      6.434206      9.457446
  Au      9.780450      8.878617      8.699837
  Au      4.502198      5.884665      8.488022
  Au      6.215452      6.434384     10.637580
  Au      5.053333      8.523014      9.063128
  Au      7.544447      8.846014     10.329008
  Au      6.748592     10.488742      8.208426
  Au      6.952212      4.477941      8.791859
  Au      9.035587     10.519840      6.596314
  Au      6.651355      9.604042      5.534318
  Au      7.285938      6.981330      4.905857
  Au      9.689641      7.845395      6.087482
  Au      4.949967      7.661002      6.401218
  Au      5.901538      4.975470      6.245419
  Au      8.646638      5.451106      6.847305
  Fe      7.435430      7.942768      7.598261
16
Coordinates from ORCA-job pbe E -3300.919306634374
  Au      8.832094      6.433427      9.468359
  Au      9.757857      8.885242      8.686514
  Au      4.505867      5.897304      8.490110
  Au      6.222588      6.429585     10.633345
  Au      5.047611      8.531350      9.058214
  Au      7.535945      8.841746     10.334656
  Au      6.771635     10.481787      8.217246
  Au      6.956065      4.481824      8.784173
  Au      9.052511     10.543555      6.586736
  Au      6.665395      9.593010      5.550260
  Au      7.281779      6.968631      4.899970
  Au      9.676751      7.856353      6.092274
  Au      4.936743      7.659089      6.386912
  Au      5.897415      4.975693      6.247618
  Au      8.653776      5.452465      6.850493
  Fe      7.417470      7.917477      7.604601
16
Coordinates from ORCA-job pbe E -3300.919523528893
  Au      8.839587      6.433605      9.460297
  Au      9.732507      8.906910      8.689287
  Au      4.503809      5.901215      8.487866
  Au      6.226745      6.425887     10.625303
  Au      5.040090      8.538432      9.065567
  Au      7.532192      8.836237     10.347845
  Au      6.787754     10.466449      8.212958
  Au      6.959914      4.480939      8.782564
  Au      9.066711     10.569297      6.576679
  Au      6.693428      9.579831      5.549403
  Au      7.282488      6.954953      4.898749
  Au      9.651748      7.863547      6.090919
  Au      4.939444      7.670588      6.391913
  Au      5.895135      4.982361      6.254299
  Au      8.660151      5.443920      6.843838
  Fe      7.399797      7.894366      7.613994
16
Coordinates from ORCA-job pbe E -3300.919850835856
  Au      8.839114      6.433032      9.461128
  Au      9.723333      8.910485      8.692214
  Au      4.503220      5.901438      8.483284
  Au      6.219684      6.428004     10.623394
  Au      5.042381      8.547512      9.051581
  Au      7.532149      8.830312     10.363371
  Au      6.813967     10.464160      8.219662
  Au      6.963478      4.480504      8.790289
  Au      9.072594     10.582928      6.575801
  Au      6.710252      9.571353      5.555480
  Au      7.285701      6.943720      4.897161
  Au      9.616146      7.886335      6.062474
  Au      4.939061      7.672059      6.389841
  Au      5.899315      4.977454      6.257462
  Au      8.666792      5.447548      6.846285
  Fe      7.384316      7.871694      7.622053
16
Coordinates from ORCA-job pbe E -3300.920206252928
  Au      8.841131      6.432128      9.465893
  Au      9.704593      8.910412      8.685893
  Au      4.503513      5.904634      8.481478
  Au      6.214454      6.429074     10.620434
  Au      5.045833      8.558236      9.041056
  Au      7.530567      8.822091     10.379568
  Au      6.844751     10.453321      8.222799
  Au      6.967987      4.482825      8.792161
  Au      9.087249     10.608159      6.567302
  Au      6.724923      9.558674      5.565713
  Au      7.279078      6.930686      4.891982
  Au      9.590301      7.910157      6.054899
  Au      4.933081      7.669022      6.382887
  Au      5.901804      4.974950      6.260352
  Au      8.674783      5.456371      6.848324
  Fe      7.367456      7.847797      7.630738
16
Coordinates from ORCA-job pbe E -3300.920619472891
  Au      8.829754      6.438209      9.472718
  Au      9.698537      8.901179      8.676776
  Au      4.508489      5.902702      8.480374
  Au      6.197041      6.428374     10.635905
  Au      5.066095      8.563997      9.024528
  Au      7.530138      8.815992     10.401117
  Au      6.881393     10.447134      8.229405
  Au      6.970790      4.488228      8.796838
  Au      9.100830     10.626077      6.565783
  Au      6.729847      9.552847      5.569204
  Au      7.257870      6.915728      4.876079
  Au      9.577507      7.944050      6.048297
  Au      4.929230      7.653940      6.372767
  Au      5.902389      4.957316      6.253531
  Au      8.674837      5.482347      6.854214
  Fe      7.356756      7.830417      7.633945
16
Coordinates from ORCA-job pbe E -3300.920947213308
  Au      8.830961      6.439385      9.486731
  Au      9.677860      8.901434      8.662256
  Au      4.511735      5.909438      8.477169
  Au      6.188767      6.428561     10.635810
  Au      5.072901      8.570017      9.009924
  Au      7.529323      8.808539     10.414847
  Au      6.911492     10.438439      8.240093
  Au      6.974481      4.492037      8.795635
  Au      9.116062     10.652151      6.556543
  Au      6.742157      9.540773      5.590471
  Au      7.250459      6.907257      4.868408
  Au      9.552010      7.957033      6.035685
  Au      4.924511      7.647370      6.360051
  Au      5.905634      4.950839      6.256849
  Au      8.680851      5.496456      6.859914
  Fe      7.342300      7.808808      7.641093
16
Coordinates from ORCA-job pbe E -3300.921212220043
  Au      8.828927      6.443475      9.500309
  Au      9.660188      8.907027      8.648945
  Au      4.515552      5.914297      8.472078
  Au      6.177969      6.426081     10.642240
  Au      5.081679      8.572399      8.999814
  Au      7.528945      8.802965     10.430945
  Au      6.938538     10.434648      8.251858
  Au      6.978598      4.496224      8.795867
  Au      9.129847     10.675409      6.549123
  Au      6.759421      9.532752      5.607556
  Au      7.240830      6.895625      4.857275
  Au      9.527550      7.969387      6.019451
  Au      4.924475      7.643278      6.347181
  Au      5.908167      4.940115      6.258051
  Au      8.682433      5.508799      6.862788
  Fe      7.328384      7.786057      7.648000
16
Coordinates from ORCA-job pbe E -3300.921378677284
  Au      8.830704      6.447268      9.509431
  Au      9.642006      8.911307      8.636242
  Au      4.516789      5.920181      8.465612
  Au      6.171313      6.426507     10.642228
  Au      5.087625      8.575016      8.994262
  Au      7.530140      8.799145     10.443879
  Au      6.957287     10.431199      8.262957
  Au      6.984539      4.500897      8.797819
  Au      9.141720     10.695730      6.545443
  Au      6.779027      9.523330      5.621679
  Au      7.230772      6.882354      4.846255
  Au      9.507804      7.981661      6.008975
  Au      4.922316      7.643762      6.335268
  Au      5.910654      4.933967      6.261716
  Au      8.685957      5.515950      6.863107
  Fe      7.312848      7.760264      7.656607
16
Coordinates from ORCA-job pbe E -3300.921463398907
  Au      8.834842      6.449141      9.521036
  Au      9.628879      8.909879      8.624665
  Au      4.517162      5.927142      8.456077
  Au      6.163011      6.429785     10.640959
  Au      5.092767      8.577350      8.988441
  Au      7.533385      8.798003     10.456072
  Au      6.969513     10.432331      8.272664
  Au      6.993083      4.506650      8.800716
  Au      9.149205     10.708863      6.546586
  Au      6.794071      9.513835      5.637612
  Au      7.221375      6.873863      4.835837
  Au      9.490228      7.989126      5.991922
  Au      4.918515      7.645918      6.322103
  Au      5.916925      4.929045      6.266510
  Au      8.690585      5.523889      6.863638
  Fe      7.297955      7.733717      7.666643
16
Coordinates from ORCA-job pbe E -3300.921456607202
  Au      8.845454      6.451178      9.507107
  Au      9.613510      8.922376      8.626399
  Au      4.513635      5.933010      8.456450
  Au      6.172175      6.426226     10.630696
  Au      5.082531      8.585425      9.004923
  Au      7.526997      8.797359     10.462309
  Au      6.970816     10.416830      8.258412
  Au      6.997941      4.507571      8.799243
  Au      9.156370     10.721774      6.543437
  Au      6.816338      9.504429      5.630497
  Au      7.223709      6.861158      4.833915
  Au      9.480499      7.999573      6.009176
  Au      4.920060      7.661795      6.328322
  Au      5.912151      4.937599      6.272537
  Au      8.696765      5.510550      6.852434
  Fe      7.282550      7.711684      7.675623
16
Coordinates from ORCA-job pbe E -3300.921539747431
  Au      8.850481      6.448266      9.520760
  Au      9.620553      8.904004      8.624705
  Au      4.514189      5.937918      8.448719
  Au      6.167173      6.436099     10.627925
  Au      5.082362      8.585364      9.003426
  Au      7.533297      8.803276     10.455749
  Au      6.960646     10.423393      8.270110
  Au      7.004453      4.514919      8.803708
  Au      9.147734     10.707491      6.551070
  Au      6.803376      9.507741      5.634813
  Au      7.219461      6.871014      4.829530
  Au      9.490510      7.990167      5.995523
  Au      4.911014      7.661275      6.319049
  Au      5.922318      4.937629      6.272871
  Au      8.701776      5.515704      6.854632
  Fe      7.282159      7.704280      7.678890
16
Coordinates from ORCA-job pbe E -3300.921561460565
  Au      8.849317      6.447130      9.523781
  Au      9.620661      8.904300      8.625159
  Au      4.516686      5.939736      8.448079
  Au      6.164633      6.433987     10.634691
  Au      5.082973      8.585536      9.005693
  Au      7.531195      8.803700     10.458816
  Au      6.960886     10.421571      8.263349
  Au      7.005630      4.516647      8.800554
  Au      9.147728     10.705754      6.548863
  Au      6.802033      9.507133      5.633531
  Au      7.219410      6.876943      4.828083
  Au      9.489070      7.987265      5.994632
  Au      4.914714      7.662024      6.321750
  Au      5.923829      4.936040      6.271079
  Au      8.700625      5.518645      6.853528
  Fe      7.282115      7.702127      7.679892
16
Coordinates from ORCA-job pbe E -3300.921577833508
  Au      8.851220      6.446890      9.525599
  Au      9.620911      8.902770      8.625299
  Au      4.518145      5.940922      8.447652
  Au      6.165770      6.434002     10.634217
  Au      5.080186      8.588436      9.005645
  Au      7.530371      8.804194     10.457862
  Au      6.963349     10.416546      8.261772
  Au      7.005904      4.518794      8.799546
  Au      9.147852     10.705222      6.548094
  Au      6.801820      9.507783      5.631724
  Au      7.219867      6.877555      4.828341
  Au      9.484402      7.988990      5.995570
  Au      4.914305      7.663233      6.322857
  Au      5.925032      4.938695      6.270026
  Au      8.703634      5.519521      6.854510
  Fe      7.278736      7.694983      7.682766
16
Coordinates from ORCA-job pbe E -3300.921590168704
  Au      8.853995      6.445539      9.528996
  Au      9.620285      8.901598      8.625723
  Au      4.520487      5.942811      8.449897
  Au      6.168399      6.434939     10.633988
  Au      5.076231      8.591847      9.008356
  Au      7.529270      8.804148     10.454187
  Au      6.962903     10.410890      8.256495
  Au      7.004843      4.520907      8.796592
  Au      9.149264     10.706427      6.546732
  Au      6.800901      9.508297      5.628162
  Au      7.220518      6.879427      4.827736
  Au      9.482481      7.990496      6.000840
  Au      4.914044      7.665909      6.325626
  Au      5.925688      4.942157      6.267800
  Au      8.707911      5.519079      6.853548
  Fe      7.274282      7.684068      7.686800
16
Coordinates from ORCA-job pbe E -3300.921591974906
  Au      8.854000      6.445096      9.530383
  Au      9.621176      8.901196      8.625472
  Au      4.520929      5.941799      8.450178
  Au      6.168426      6.435205     10.634656
  Au      5.075025      8.592003      9.007336
  Au      7.529403      8.804264     10.453186
  Au      6.963388     10.410952      8.256860
  Au      7.004549      4.521457      8.796101
  Au      9.149627     10.706047      6.546917
  Au      6.800242      9.509481      5.627784
  Au      7.220387      6.879852      4.828112
  Au      9.481971      7.991008      5.998974
  Au      4.913898      7.666034      6.325782
  Au      5.925815      4.942707      6.266996
  Au      8.708744      5.519153      6.855148
  Fe      7.273924      7.682285      7.687597
16
Coordinates from ORCA-job pbe E -3300.921593339652
  Au      8.853881      6.444743      9.531303
  Au      9.620973      8.900932      8.624563
  Au      4.520891      5.940956      8.450609
  Au      6.168132      6.435748     10.634989
  Au      5.074822      8.591318      9.006769
  Au      7.529635      8.804259     10.452309
  Au      6.962675     10.411750      8.256847
  Au      7.004311      4.521721      8.795716
  Au      9.150105     10.706344      6.547192
  Au      6.800559      9.509784      5.628377
  Au      7.219931      6.880258      4.828327
  Au      9.482692      7.990868      5.997876
  Au      4.913987      7.666135      6.326121
  Au      5.925489      4.942906      6.266637
  Au      8.709257      5.519368      6.855723
  Fe      7.274164      7.681447      7.688122
