11
E=  -1164.94471356;c=0;m=3
Au      7.610449295810850      6.682483185125280      6.456071666068770
Au      8.819819232139769      8.851071817190450      7.321904949006670
Au      5.913043475422520      4.549563591812010      6.185031989783080
Au      6.334492083843700      5.482807244881880      8.746507849444811
Au      6.866715557351690      7.194507403239930     10.770260483715020
Au      4.541658792777110      9.582719578809799      7.517727580859670
Au      4.714510029723550      6.996247964277910      6.643877814544730
Au      7.018937749461230     10.794053161357271      8.091638829294761
Au      5.753535542110090      9.731301646349420     10.317128569314210
Au      4.277822244059950      7.437081080757720      9.432540227931399
Fe      6.603045347299530      8.182475096198271      8.374202730036821
