11
Coordinates from ORCA-job pbe E -2621.727250146354
  Au      7.610449      6.682483      6.456072
  Au      8.819819      8.851072      7.321905
  Au      5.913043      4.549564      6.185032
  Au      6.334492      5.482807      8.746508
  Au      6.866716      7.194507     10.770260
  Au      4.541659      9.582720      7.517728
  Au      4.714510      6.996248      6.643878
  Au      7.018938     10.794053      8.091639
  Au      5.753536      9.731302     10.317129
  Au      4.277822      7.437081      9.432540
  Fe      6.603045      8.182475      8.374203
11
Coordinates from ORCA-job pbe E -2621.727953253965
  Au      7.620449      6.644977      6.451099
  Au      8.831198      8.889145      7.292336
  Au      5.883588      4.556013      6.213480
  Au      6.347302      5.484150      8.739708
  Au      6.857424      7.186068     10.772971
  Au      4.546891      9.546982      7.504274
  Au      4.728086      7.033560      6.670234
  Au      7.007071     10.793480      8.131988
  Au      5.758277      9.742635     10.315489
  Au      4.267719      7.430028      9.397599
  Fe      6.606024      8.177275      8.367716
11
Coordinates from ORCA-job pbe E -2621.728741017066
  Au      7.646558      6.638140      6.455965
  Au      8.825481      8.902958      7.258830
  Au      5.871878      4.536897      6.213574
  Au      6.348747      5.486148      8.745535
  Au      6.849685      7.187930     10.774984
  Au      4.551554      9.571267      7.508321
  Au      4.728085      7.011164      6.650332
  Au      7.009276     10.796887      8.159998
  Au      5.762237      9.747325     10.327295
  Au      4.257123      7.429439      9.399337
  Fe      6.603407      8.176156      8.362723
11
Coordinates from ORCA-job pbe E -2621.729295967230
  Au      7.672760      6.620850      6.477832
  Au      8.793139      8.908906      7.192134
  Au      5.887722      4.550913      6.223424
  Au      6.345627      5.489040      8.740212
  Au      6.828478      7.192661     10.778062
  Au      4.555511      9.582353      7.509271
  Au      4.737926      7.001414      6.645160
  Au      7.031284     10.796148      8.182264
  Au      5.761777      9.733894     10.354122
  Au      4.245045      7.439658      9.400408
  Fe      6.594761      8.168475      8.354004
11
Coordinates from ORCA-job pbe E -2621.729677859646
  Au      7.715609      6.588029      6.498439
  Au      8.741379      8.939744      7.093569
  Au      5.903083      4.527726      6.213293
  Au      6.348655      5.491899      8.761455
  Au      6.793166      7.195948     10.784196
  Au      4.569044      9.588932      7.513140
  Au      4.745539      7.017596      6.640580
  Au      7.059018     10.788993      8.235297
  Au      5.760838      9.725298     10.378136
  Au      4.233145      7.462201      9.397659
  Fe      6.584554      8.157946      8.341129
11
Coordinates from ORCA-job pbe E -2621.729899082682
  Au      7.721109      6.563639      6.500335
  Au      8.722606      8.966310      7.055180
  Au      5.897379      4.538514      6.230710
  Au      6.348438      5.487144      8.759271
  Au      6.783746      7.189624     10.792968
  Au      4.585077      9.595339      7.517376
  Au      4.766276      7.019769      6.638261
  Au      7.060227     10.780198      8.261791
  Au      5.748716      9.727456     10.372000
  Au      4.234866      7.466449      9.394427
  Fe      6.585589      8.149868      8.334573
11
Coordinates from ORCA-job pbe E -2621.729993608237
  Au      7.714837      6.577334      6.494651
  Au      8.724957      8.958020      7.061342
  Au      5.891471      4.536125      6.240071
  Au      6.347645      5.481560      8.758018
  Au      6.788763      7.184546     10.795916
  Au      4.587832      9.595891      7.517012
  Au      4.771268      7.027474      6.641631
  Au      7.058032     10.786041      8.255739
  Au      5.739119      9.728719     10.367164
  Au      4.240242      7.458851      9.389498
  Fe      6.589863      8.149751      8.335852
11
Coordinates from ORCA-job pbe E -2621.730048090959
  Au      7.706405      6.578368      6.489461
  Au      8.721418      8.959047      7.059230
  Au      5.890794      4.533102      6.244535
  Au      6.350728      5.480040      8.765333
  Au      6.786453      7.182895     10.797653
  Au      4.591465      9.600104      7.517893
  Au      4.775555      7.034177      6.638100
  Au      7.063363     10.791285      8.254023
  Au      5.729253      9.723334     10.365506
  Au      4.244622      7.454246      9.389239
  Fe      6.593974      8.147714      8.335919
11
Coordinates from ORCA-job pbe E -2621.730106346493
  Au      7.701494      6.576665      6.485665
  Au      8.709025      8.963676      7.041455
  Au      5.888242      4.529914      6.252413
  Au      6.355730      5.475581      8.773857
  Au      6.780086      7.185508     10.805092
  Au      4.601561      9.606415      7.521008
  Au      4.782135      7.043575      6.632067
  Au      7.068654     10.794355      8.266304
  Au      5.719506      9.719020     10.359402
  Au      4.246878      7.447074      9.384185
  Fe      6.600719      8.142528      8.335445
11
Coordinates from ORCA-job pbe E -2621.730149440835
  Au      7.697221      6.573884      6.481407
  Au      8.694796      8.972090      7.021303
  Au      5.879956      4.528478      6.265437
  Au      6.365272      5.474383      8.782916
  Au      6.772959      7.188703     10.813223
  Au      4.613540      9.610946      7.526886
  Au      4.787433      7.051110      6.622876
  Au      7.076572     10.796697      8.281658
  Au      5.709258      9.715288     10.353110
  Au      4.246538      7.436489      9.371756
  Fe      6.610484      8.136245      8.336319
11
Coordinates from ORCA-job pbe E -2621.730164117166
  Au      7.695891      6.572764      6.479785
  Au      8.690626      8.974066      7.014862
  Au      5.877764      4.529071      6.268435
  Au      6.369774      5.474968      8.783853
  Au      6.769560      7.192500     10.817434
  Au      4.618027      9.610293      7.530209
  Au      4.785494      7.052727      6.619209
  Au      7.080217     10.796695      8.286013
  Au      5.706164      9.715430     10.351501
  Au      4.245417      7.431883      9.366864
  Fe      6.615096      8.133917      8.338727
11
Coordinates from ORCA-job pbe E -2621.730173826111
  Au      7.694797      6.573028      6.477571
  Au      8.689390      8.973524      7.010166
  Au      5.875931      4.531647      6.270143
  Au      6.374149      5.478738      8.784075
  Au      6.764996      7.193975     10.819374
  Au      4.621171      9.607254      7.533062
  Au      4.783061      7.052537      6.617629
  Au      7.082778     10.795527      8.288533
  Au      5.703249      9.717904     10.350392
  Au      4.245314      7.427957      9.363736
  Fe      6.619193      8.132221      8.342212
11
Coordinates from ORCA-job pbe E -2621.730180111130
  Au      7.694776      6.573586      6.475469
  Au      8.690528      8.973905      7.008746
  Au      5.875370      4.531347      6.268777
  Au      6.376384      5.479284      8.781105
  Au      6.761558      7.195750     10.821565
  Au      4.622186      9.604951      7.534259
  Au      4.781154      7.051802      6.618569
  Au      7.084806     10.793789      8.287118
  Au      5.700799      9.720215     10.351598
  Au      4.245266      7.427685      9.364342
  Fe      6.621203      8.131998      8.345344
11
Coordinates from ORCA-job pbe E -2621.730185170485
  Au      7.693425      6.575138      6.472735
  Au      8.692080      8.972736      7.007282
  Au      5.877269      4.531032      6.266912
  Au      6.377451      5.479996      8.779746
  Au      6.757877      7.194975     10.822332
  Au      4.622195      9.604116      7.534385
  Au      4.781360      7.050708      6.621086
  Au      7.085591     10.791736      8.286089
  Au      5.699377      9.722773     10.352196
  Au      4.245467      7.428908      9.366512
  Fe      6.621937      8.132194      8.347618
11
Coordinates from ORCA-job pbe E -2621.730188978857
  Au      7.691374      6.577373      6.468818
  Au      8.692816      8.972965      7.003503
  Au      5.878627      4.529354      6.266402
  Au      6.379626      5.480069      8.779117
  Au      6.752243      7.193301     10.823621
  Au      4.622543      9.604335      7.534028
  Au      4.783768      7.049527      6.624231
  Au      7.086893     10.789366      8.286314
  Au      5.697957      9.724379     10.353140
  Au      4.245252      7.431151      9.367942
  Fe      6.622929      8.132492      8.349777
11
Coordinates from ORCA-job pbe E -2621.730190037991
  Au      7.689947      6.578319      6.467328
  Au      8.692339      8.973408      7.001546
  Au      5.879515      4.528520      6.266713
  Au      6.380867      5.479873      8.779456
  Au      6.749910      7.192331     10.824728
  Au      4.622841      9.604730      7.533641
  Au      4.784819      7.049072      6.624985
  Au      7.087528     10.788745      8.286927
  Au      5.698389      9.724442     10.353455
  Au      4.244475      7.432173      9.367670
  Fe      6.623398      8.132700      8.350445
