%pal nprocs 1 end 

!PBE def2-TZVP OPT UNO
!SLOWCONV

*xyz 0 6 
Au  8.79337086932630      6.25008204209734      9.95853776798389
Au  10.04622883793963      8.25480998330311      8.54157129270415
Au  4.48299544066833      5.83960147988320      8.36934917419771
Au  6.06746294073078      6.68638225351343     10.49826101883101
Au  5.16698113724902      8.52617146363149      8.58899176309604
Au  7.79324703218815      8.84034967217306     10.17805222985183
Au  6.81460477655501     10.73201643803895      8.46078656191891
Au  6.93254802020513      4.51683036776480      8.88804942661593
Au  8.80297632543768     10.27553952962980      6.57361927724778
Au  6.03737220510501      9.66649534308033      5.98091236025628
Au  7.26015308848893      7.26878326364860      5.03671504438718
Au  9.83964272816847      7.83715416770443      5.78789560898577
Au  4.63722866896136      7.31647551061166      6.03650650253334
Au  6.18111672938935      4.99847374089585      6.25879737667433
Au  8.73591666191796      5.75766110823229      7.17710300032288
Fe  7.61965696766856      8.18171118579132      7.55633191439277
* 
