13
E=  -1363.37486629;c=0;m=4
Au      8.260262321055560     11.136572064112000      7.473586728879930
Au     10.640787876637811     12.326003085248461      8.058737087650410
Au      7.167391752279420      7.323812933359080      5.112925761262790
Au      9.747820770892860      8.170133649426459      4.898506484527850
Au     10.802000861694200     10.336694757016700      6.169660195718260
Au     11.133753208689640      7.850532966291540      7.545630418005970
Au      8.917165204026190      7.544743475518110      9.551152493223810
Au     10.240620247640420      9.914288750868719      9.313730654281381
Au      6.604820612727590      6.900507213139550      8.262278630266030
Au      8.997530582188340      6.081365332366790      6.926357605852250
Au      4.708563444926070      7.402144512018250      6.337657906890610
Au      6.317617655686710      9.525023213923779      6.910081628364860
Mn      8.665562691555211      8.662980266710580      7.213831235075810
