13
Coordinates from ORCA-job pbe E -2780.692727574448
  Au      8.260262     11.136572      7.473587
  Au     10.640788     12.326003      8.058737
  Au      7.167392      7.323813      5.112926
  Au      9.747821      8.170134      4.898506
  Au     10.802001     10.336695      6.169660
  Au     11.133753      7.850533      7.545630
  Au      8.917165      7.544743      9.551152
  Au     10.240620      9.914289      9.313731
  Au      6.604821      6.900507      8.262279
  Au      8.997531      6.081365      6.926358
  Au      4.708563      7.402145      6.337658
  Au      6.317618      9.525023      6.910082
  Mn      8.665563      8.662980      7.213831
13
Coordinates from ORCA-job pbe E -2780.697899585742
  Au      8.267018     11.209258      7.484168
  Au     10.677212     12.305866      8.063503
  Au      7.204545      7.329165      5.159116
  Au      9.736393      8.188556      4.883475
  Au     10.776804     10.290851      6.197860
  Au     11.149405      7.859284      7.549374
  Au      8.900199      7.560033      9.565335
  Au     10.228596      9.877834      9.267567
  Au      6.655185      6.915816      8.234433
  Au      8.987437      6.067366      6.922835
  Au      4.720741      7.363085      6.335345
  Au      6.245228      9.532072      6.897650
  Mn      8.655134      8.675617      7.213476
13
Coordinates from ORCA-job pbe E -2780.701483042009
  Au      8.220175     11.247007      7.480837
  Au     10.684653     12.324896      8.068266
  Au      7.205321      7.321013      5.205668
  Au      9.743429      8.190929      4.852296
  Au     10.768438     10.275701      6.240468
  Au     11.182406      7.819365      7.549609
  Au      8.895239      7.553992      9.596208
  Au     10.236083      9.874769      9.221951
  Au      6.672461      6.920166      8.190571
  Au      9.021375      6.027405      6.923648
  Au      4.700769      7.360217      6.332338
  Au      6.217168      9.585316      6.898959
  Mn      8.656380      8.674025      7.213318
13
Coordinates from ORCA-job pbe E -2780.703104982512
  Au      8.180657     11.264112      7.475986
  Au     10.631715     12.319263      8.058345
  Au      7.218148      7.331101      5.256705
  Au      9.750781      8.185151      4.841942
  Au     10.739839     10.253037      6.278561
  Au     11.193233      7.757324      7.543087
  Au      8.898988      7.545731      9.606816
  Au     10.223336      9.863224      9.171810
  Au      6.700862      6.942327      8.151631
  Au      9.081658      6.005605      6.931230
  Au      4.714559      7.411877      6.342096
  Au      6.208287      9.628411      6.902494
  Mn      8.661835      8.667640      7.213433
13
Coordinates from ORCA-job pbe E -2780.703082586333
  Au      8.160568     11.278786      7.474787
  Au     10.611256     12.360761      8.059278
  Au      7.230273      7.325827      5.266890
  Au      9.758754      8.173506      4.846759
  Au     10.739002     10.236966      6.283496
  Au     11.195689      7.723808      7.539030
  Au      8.908571      7.534715      9.602684
  Au     10.225630      9.849733      9.163838
  Au      6.717172      6.938667      8.145754
  Au      9.115066      5.997270      6.935816
  Au      4.678322      7.441497      6.338580
  Au      6.197649      9.650723      6.903414
  Mn      8.665947      8.662544      7.213811
13
Coordinates from ORCA-job pbe E -2780.703370339224
  Au      8.170006     11.278838      7.476265
  Au     10.617074     12.342904      8.058029
  Au      7.220938      7.326098      5.263126
  Au      9.759252      8.171631      4.849870
  Au     10.741250     10.246756      6.283789
  Au     11.195362      7.737387      7.540984
  Au      8.910361      7.533991      9.599472
  Au     10.226985      9.859250      9.166982
  Au      6.706954      6.938141      8.145652
  Au      9.102243      6.000276      6.933715
  Au      4.693723      7.432348      6.340647
  Au      6.196059      9.641677      6.901858
  Mn      8.663690      8.665504      7.213747
13
Coordinates from ORCA-job pbe E -2780.703408037645
  Au      8.165693     11.278659      7.475219
  Au     10.619675     12.335637      8.057625
  Au      7.221861      7.327259      5.264008
  Au      9.760388      8.167047      4.856994
  Au     10.739891     10.245751      6.283663
  Au     11.195467      7.746602      7.542610
  Au      8.914265      7.531738      9.592193
  Au     10.225273      9.858456      9.166528
  Au      6.708212      6.939034      8.145168
  Au      9.093608      6.002078      6.931993
  Au      4.700484      7.428807      6.341926
  Au      6.197264      9.645840      6.902492
  Mn      8.661816      8.667893      7.213719
13
Coordinates from ORCA-job pbe E -2780.703459576024
  Au      8.163459     11.283416      7.475271
  Au     10.617698     12.335292      8.057141
  Au      7.219885      7.328287      5.263076
  Au      9.765297      8.157769      4.865154
  Au     10.739182     10.247297      6.283055
  Au     11.196050      7.745917      7.543134
  Au      8.922208      7.524809      9.584177
  Au     10.224030      9.860522      9.167602
  Au      6.706746      6.939206      8.145468
  Au      9.095320      6.001840      6.931644
  Au      4.699987      7.431077      6.342474
  Au      6.193571      9.649451      6.902112
  Mn      8.660463      8.669918      7.213830
13
Coordinates from ORCA-job pbe E -2780.703530763785
  Au      8.154988     11.294324      7.474737
  Au     10.610226     12.340406      8.055541
  Au      7.218353      7.332999      5.263566
  Au      9.779841      8.129936      4.885575
  Au     10.735302     10.248418      6.279769
  Au     11.199167      7.745872      7.545468
  Au      8.944963      7.502946      9.564062
  Au     10.218033      9.862002      9.170466
  Au      6.706505      6.941733      8.145235
  Au      9.096387      5.999452      6.929452
  Au      4.699416      7.442215      6.344601
  Au      6.184944      9.658798      6.901519
  Mn      8.655773      8.675702      7.214145
13
Coordinates from ORCA-job pbe E -2780.703541015147
  Au      8.153466     11.300578      7.475031
  Au     10.607158     12.334270      8.054242
  Au      7.219003      7.337880      5.260951
  Au      9.790003      8.116589      4.894931
  Au     10.729044     10.247075      6.280648
  Au     11.201203      7.748382      7.547011
  Au      8.958247      7.491809      9.555720
  Au     10.212155      9.863286      9.167664
  Au      6.708086      6.944733      8.149172
  Au      9.098414      5.999774      6.928865
  Au      4.692374      7.441627      6.343532
  Au      6.181939      9.666981      6.901746
  Mn      8.652805      8.681819      7.214623
13
Coordinates from ORCA-job pbe E -2780.703582632915
  Au      8.150966     11.301581      7.474515
  Au     10.611775     12.336444      8.055360
  Au      7.219702      7.341809      5.263254
  Au      9.792545      8.111394      4.894920
  Au     10.725983     10.246690      6.277554
  Au     11.200258      7.747920      7.547142
  Au      8.960943      7.486710      9.555289
  Au     10.207744      9.862503      9.169310
  Au      6.709604      6.948682      8.148159
  Au      9.097339      5.999939      6.928305
  Au      4.697438      7.440005      6.344663
  Au      6.180182      9.666344      6.901198
  Mn      8.649416      8.684783      7.214468
13
Coordinates from ORCA-job pbe E -2780.703601977745
  Au      8.151010     11.300350      7.474005
  Au     10.610923     12.336566      8.054561
  Au      7.222780      7.345260      5.263650
  Au      9.795286      8.107432      4.892321
  Au     10.723613     10.246498      6.275109
  Au     11.200142      7.749845      7.547821
  Au      8.963814      7.482643      9.557905
  Au     10.203527      9.859740      9.170373
  Au      6.710405      6.951342      8.149071
  Au      9.094847      6.000171      6.927455
  Au      4.700228      7.441687      6.346029
  Au      6.181011      9.665002      6.901345
  Mn      8.646310      8.688267      7.214492
13
Coordinates from ORCA-job pbe E -2780.703606078948
  Au      8.150329     11.301493      7.474210
  Au     10.612374     12.334380      8.055306
  Au      7.222089      7.346895      5.263236
  Au      9.798335      8.104822      4.893021
  Au     10.721330     10.244125      6.273583
  Au     11.198831      7.750732      7.547267
  Au      8.965688      7.478815      9.557250
  Au     10.201923      9.860862      9.170915
  Au      6.713264      6.953062      8.150581
  Au      9.094486      6.001724      6.927980
  Au      4.701729      7.439956      6.345299
  Au      6.180117      9.665980      6.900930
  Mn      8.643401      8.691956      7.214558
13
Coordinates from ORCA-job pbe E -2780.703609517545
  Au      8.150105     11.302622      7.473969
  Au     10.612940     12.332992      8.054791
  Au      7.223629      7.346602      5.263021
  Au      9.798316      8.104034      4.893406
  Au     10.721989     10.245035      6.274122
  Au     11.197913      7.750598      7.547337
  Au      8.966898      7.478997      9.556951
  Au     10.201816      9.859341      9.170537
  Au      6.712049      6.952396      8.150625
  Au      9.095271      6.002734      6.927969
  Au      4.701404      7.438750      6.345701
  Au      6.179316      9.667039      6.901119
  Mn      8.642252      8.693663      7.214589
13
Coordinates from ORCA-job pbe E -2780.703611611395
  Au      8.150091     11.302518      7.473943
  Au     10.610899     12.333256      8.054528
  Au      7.223745      7.344487      5.262882
  Au      9.797279      8.105806      4.892847
  Au     10.723922     10.244830      6.274866
  Au     11.198131      7.750164      7.547043
  Au      8.965597      7.480535      9.557476
  Au     10.204033      9.858876      9.170430
  Au      6.711890      6.950602      8.150328
  Au      9.095552      6.002389      6.928256
  Au      4.701061      7.440467      6.345801
  Au      6.179399      9.667208      6.901160
  Mn      8.642297      8.693665      7.214578
