15
E=  -1580.68953288;c=0;m=6
Au      9.584538190388420      5.516655617141810      5.959176696573410
Au      6.683508173443420      6.099708216134410      6.139173435360070
Au     10.533212009640890      5.465603190979650      8.722559409055981
Au      7.907449688037720      4.475655621995140      8.049823493456950
Au      5.896013871927170      6.260911175766180      8.868558705026389
Au      8.263388508307040      6.124029568347730     10.378611977065370
Au     10.160643495116950      8.184213924066080      9.727712074072359
Au      7.229765209379470      8.628656839439250      9.711974761120240
Au      9.235518654467020      9.795920089182060      7.695151126279110
Au      6.688176777567760     10.965429717768259      8.360177964830660
Au      7.414670565142390     10.419844975945340      5.692349323631230
Au      6.098034583631600      8.232912955095070      4.499440492881070
Au      8.866683945090230      8.087918647165679      5.282089908394660
Au      5.716530063609000      8.556237197506830      7.271475196436530
Mn     10.089380774250920      7.472323913467920      7.370137635815870
