17
E=  -1818.01275054;c=0;m=3
Au      8.769810157743070      7.219347230836000      9.707192847142430
Au      8.577279844721120      5.246665482887650      7.687264434917300
Au      6.200223258326870      8.345570047349071     10.077410420477760
Au      4.419467408674920      7.069037750059480      8.286357457198390
Au      5.363332250577450      9.671799526620561      7.728017650788000
Au      5.161830793207910      7.607969114429030      5.615027156210480
Au      5.888505915138060      5.153376421478390      6.809382371215030
Au      9.735922282890879     10.493681228611610      6.422541250889120
Au      7.159393568089870     11.623003347046680      6.793508733640180
Au      8.037762279598210     10.923107941996260      4.176813054946390
Au      5.373538618833140     10.342858206703809      4.997624393875680
Au      9.713206227839089      7.765315914827320      7.101176518843540
Au      6.846574656636680      8.422109693552880      3.516606076541730
Au      7.850307601027140      6.429704984767750      5.227583783776190
Au      9.542906160234359      8.515610533673451      4.396948601537660
Au      8.176229206757389      9.769114574688119      8.646787051904131
Fe      6.980032219703910      7.318807460471890      7.798070546096020
