17
Coordinates from ORCA-job pbe E -3436.726766851235
  Au      8.769810      7.219347      9.707193
  Au      8.577280      5.246665      7.687264
  Au      6.200223      8.345570     10.077410
  Au      4.419467      7.069038      8.286357
  Au      5.363332      9.671800      7.728018
  Au      5.161831      7.607969      5.615027
  Au      5.888506      5.153376      6.809382
  Au      9.735922     10.493681      6.422541
  Au      7.159394     11.623003      6.793509
  Au      8.037762     10.923108      4.176813
  Au      5.373539     10.342858      4.997624
  Au      9.713206      7.765316      7.101177
  Au      6.846575      8.422110      3.516606
  Au      7.850308      6.429705      5.227584
  Au      9.542906      8.515611      4.396949
  Au      8.176229      9.769115      8.646787
  Fe      6.980032      7.318807      7.798071
17
Coordinates from ORCA-job pbe E -3436.729552370216
  Au      8.774030      7.235780      9.697464
  Au      8.597057      5.254237      7.676684
  Au      6.209417      8.358957     10.074678
  Au      4.404732      7.091291      8.275759
  Au      5.381137      9.659345      7.711218
  Au      5.188635      7.617038      5.625806
  Au      5.886135      5.155550      6.774647
  Au      9.709097     10.475814      6.419883
  Au      7.162969     11.589398      6.786935
  Au      8.028868     10.895168      4.201438
  Au      5.395412     10.325302      5.017916
  Au      9.693740      7.769114      7.090849
  Au      6.853703      8.420899      3.549103
  Au      7.840166      6.455945      5.243726
  Au      9.518455      8.517655      4.422031
  Au      8.169994      9.766691      8.631998
  Fe      6.982775      7.328894      7.788177
17
Coordinates from ORCA-job pbe E -3436.730020781607
  Au      8.775992      7.237845      9.702146
  Au      8.608699      5.240120      7.685318
  Au      6.211101      8.357012     10.086097
  Au      4.384484      7.094049      8.284210
  Au      5.385284      9.650697      7.701518
  Au      5.198841      7.616486      5.629220
  Au      5.876370      5.135715      6.761788
  Au      9.699855     10.481018      6.410571
  Au      7.172017     11.582739      6.775497
  Au      8.025927     10.891513      4.199726
  Au      5.402442     10.334601      5.026092
  Au      9.692427      7.765023      7.080376
  Au      6.861906      8.424057      3.544829
  Au      7.831506      6.468299      5.252081
  Au      9.516997      8.530396      4.428479
  Au      8.170288      9.777892      8.634739
  Fe      6.982184      7.329616      7.785626
17
Coordinates from ORCA-job pbe E -3436.730169104261
  Au      8.775446      7.241246      9.698554
  Au      8.611149      5.239899      7.688735
  Au      6.213659      8.353658     10.087397
  Au      4.381708      7.096247      8.286909
  Au      5.390170      9.637904      7.700610
  Au      5.208070      7.620912      5.628958
  Au      5.874882      5.133421      6.755832
  Au      9.698953     10.481399      6.412793
  Au      7.176229     11.578360      6.774409
  Au      8.019771     10.888432      4.186658
  Au      5.400672     10.338168      5.025735
  Au      9.688616      7.758566      7.081492
  Au      6.861361      8.423824      3.535885
  Au      7.823763      6.478582      5.265164
  Au      9.517953      8.533352      4.432329
  Au      8.170259      9.778713      8.645191
  Fe      6.983664      7.334398      7.781661
17
Coordinates from ORCA-job pbe E -3436.730304306815
  Au      8.773224      7.237250      9.700807
  Au      8.603900      5.235885      7.698002
  Au      6.212650      8.344613     10.090410
  Au      4.387204      7.089715      8.290156
  Au      5.396504      9.633575      7.697703
  Au      5.211201      7.623337      5.627618
  Au      5.873248      5.134326      6.763503
  Au      9.694422     10.480094      6.414932
  Au      7.181220     11.570343      6.771057
  Au      8.013000     10.885906      4.173637
  Au      5.399504     10.346235      5.023517
  Au      9.689345      7.757496      7.081147
  Au      6.862104      8.426429      3.519368
  Au      7.821796      6.489714      5.270082
  Au      9.518650      8.540914      4.433663
  Au      8.172575      9.782176      8.653898
  Fe      6.985775      7.339071      7.778814
17
Coordinates from ORCA-job pbe E -3436.730378912733
  Au      8.771906      7.231614      9.704664
  Au      8.593278      5.236002      7.703664
  Au      6.210416      8.334063     10.093788
  Au      4.398117      7.078954      8.292848
  Au      5.399596      9.632928      7.695496
  Au      5.214421      7.630583      5.621071
  Au      5.874741      5.140153      6.775462
  Au      9.691824     10.477277      6.416784
  Au      7.184303     11.563201      6.765973
  Au      8.008967     10.884290      4.163525
  Au      5.395856     10.350992      5.017887
  Au      9.691792      7.755173      7.085308
  Au      6.858975      8.424082      3.503962
  Au      7.819872      6.502980      5.271322
  Au      9.517103      8.545451      4.432934
  Au      8.175946      9.783170      8.667771
  Fe      6.989208      7.346165      7.775852
17
Coordinates from ORCA-job pbe E -3436.730398499210
  Au      8.771958      7.231426      9.707274
  Au      8.589853      5.236825      7.705007
  Au      6.210697      8.335062     10.092366
  Au      4.403060      7.079096      8.291123
  Au      5.398586      9.630758      7.695694
  Au      5.213195      7.629277      5.620656
  Au      5.875727      5.143530      6.779199
  Au      9.690212     10.473689      6.419637
  Au      7.184282     11.557409      6.767197
  Au      8.010198     10.885902      4.166535
  Au      5.393387     10.352001      5.016424
  Au      9.693442      7.755361      7.084859
  Au      6.857120      8.423136      3.497211
  Au      7.819029      6.503586      5.270928
  Au      9.517014      8.546810      4.432289
  Au      8.177158      9.782964      8.668142
  Fe      6.991404      7.350246      7.773773
17
Coordinates from ORCA-job pbe E -3436.730422345531
  Au      8.772996      7.231782      9.709651
  Au      8.589792      5.239211      7.704354
  Au      6.211641      8.336454     10.093004
  Au      4.405483      7.078189      8.291196
  Au      5.395095      9.632357      7.695313
  Au      5.212519      7.629846      5.619036
  Au      5.876933      5.145354      6.780248
  Au      9.690767     10.469513      6.421809
  Au      7.181040     11.553085      6.767591
  Au      8.011347     10.885364      4.170737
  Au      5.392680     10.351831      5.013329
  Au      9.695023      7.753185      7.086149
  Au      6.856269      8.423464      3.493799
  Au      7.818546      6.504931      5.269166
  Au      9.514209      8.545263      4.430236
  Au      8.177942      9.782267      8.670543
  Fe      6.994041      7.354985      7.772150
17
Coordinates from ORCA-job pbe E -3436.730452770371
  Au      8.774512      7.231649      9.713957
  Au      8.589978      5.242483      7.703922
  Au      6.211941      8.338733     10.093614
  Au      4.409783      7.078366      8.291794
  Au      5.384060      9.633422      7.696549
  Au      5.212498      7.631470      5.615083
  Au      5.878818      5.148781      6.778547
  Au      9.693048     10.463136      6.425094
  Au      7.176082     11.544197      6.769734
  Au      8.014259     10.883261      4.180320
  Au      5.390556     10.348560      5.006188
  Au      9.700993      7.749811      7.086038
  Au      6.853459      8.423590      3.489648
  Au      7.815534      6.507251      5.267758
  Au      9.508738      8.541444      4.427138
  Au      8.181678      9.784131      8.675270
  Fe      7.000386      7.366794      7.767660
17
Coordinates from ORCA-job pbe E -3436.730466981871
  Au      8.774765      7.234442      9.711326
  Au      8.590441      5.244077      7.704325
  Au      6.212759      8.341063     10.091179
  Au      4.412179      7.076787      8.293297
  Au      5.377616      9.636277      7.694568
  Au      5.211253      7.630263      5.614922
  Au      5.877841      5.148399      6.780020
  Au      9.693887     10.461818      6.427302
  Au      7.173498     11.538959      6.772624
  Au      8.015798     10.883378      4.185149
  Au      5.390190     10.349292      5.005551
  Au      9.703614      7.746097      7.084531
  Au      6.853622      8.424532      3.488400
  Au      7.814934      6.506525      5.267541
  Au      9.508659      8.539149      4.426327
  Au      8.181887      9.783175      8.676983
  Fe      7.003380      7.372847      7.764266
17
Coordinates from ORCA-job pbe E -3436.730487013899
  Au      8.774428      7.234918      9.708016
  Au      8.589203      5.244367      7.704201
  Au      6.210712      8.341663     10.087956
  Au      4.415895      7.074811      8.293983
  Au      5.368297      9.639086      7.695697
  Au      5.209819      7.628877      5.615779
  Au      5.876363      5.149484      6.781000
  Au      9.695423     10.462936      6.427700
  Au      7.172207     11.534500      6.775944
  Au      8.016658     10.881567      4.187456
  Au      5.390196     10.349421      5.004541
  Au      9.707762      7.744055      7.081820
  Au      6.854712      8.425078      3.491199
  Au      7.815139      6.506189      5.268765
  Au      9.509345      8.536572      4.425869
  Au      8.183527      9.783664      8.678010
  Fe      7.006636      7.379890      7.760376
17
Coordinates from ORCA-job pbe E -3436.730527022088
  Au      8.773489      7.235677      9.699143
  Au      8.585414      5.244077      7.701763
  Au      6.203844      8.344590     10.077823
  Au      4.425870      7.069280      8.295452
  Au      5.341785      9.647678      7.699297
  Au      5.205242      7.627720      5.615348
  Au      5.872166      5.150745      6.786678
  Au      9.698798     10.467773      6.428852
  Au      7.169820     11.520877      6.785914
  Au      8.018536     10.878143      4.192120
  Au      5.390227     10.349916      5.002523
  Au      9.719790      7.740876      7.075000
  Au      6.855351      8.426176      3.504196
  Au      7.816608      6.502869      5.274480
  Au      9.515691      8.530998      4.424242
  Au      8.188970      9.781693      8.676019
  Fe      7.014722      7.397992      7.749461
17
Coordinates from ORCA-job pbe E -3436.730551630277
  Au      8.772106      7.233048      9.696822
  Au      8.585308      5.244987      7.695758
  Au      6.200197      8.348654     10.072122
  Au      4.429207      7.068376      8.292344
  Au      5.325757      9.654126      7.703884
  Au      5.202084      7.625547      5.618912
  Au      5.870362      5.152909      6.788052
  Au      9.700835     10.470888      6.427129
  Au      7.167709     11.515792      6.791268
  Au      8.020886     10.876225      4.193104
  Au      5.389188     10.348642      5.002248
  Au      9.725474      7.742684      7.073265
  Au      6.855796      8.424673      3.518715
  Au      7.819826      6.501091      5.275952
  Au      9.521073      8.526336      4.422291
  Au      8.192924      9.777096      8.672139
  Fe      7.017593      7.406006      7.744309
17
Coordinates from ORCA-job pbe E -3436.730591031378
  Au      8.770163      7.227023      9.700039
  Au      8.587908      5.246302      7.687863
  Au      6.199523      8.354189     10.069699
  Au      4.425734      7.070506      8.288400
  Au      5.321178      9.657318      7.708000
  Au      5.199644      7.625300      5.621834
  Au      5.872222      5.153498      6.788123
  Au      9.699766     10.472816      6.422986
  Au      7.167105     11.516487      6.791832
  Au      8.022450     10.876753      4.190178
  Au      5.388087     10.346464      5.003841
  Au      9.724514      7.749056      7.077842
  Au      6.854350      8.424194      3.532658
  Au      7.823998      6.497901      5.274931
  Au      9.527683      8.524618      4.420675
  Au      8.196920      9.770567      8.665359
  Fe      7.015076      7.404086      7.744052
17
Coordinates from ORCA-job pbe E -3436.730621171903
  Au      8.767354      7.220430      9.705913
  Au      8.591992      5.249431      7.683001
  Au      6.201242      8.358611     10.068660
  Au      4.423881      7.071102      8.288666
  Au      5.319716      9.658792      7.709492
  Au      5.198504      7.625580      5.621504
  Au      5.874971      5.154224      6.790757
  Au      9.695960     10.471047      6.420338
  Au      7.165940     11.512216      6.790994
  Au      8.024311     10.878501      4.187670
  Au      5.386356     10.347640      5.002605
  Au      9.721433      7.753113      7.084117
  Au      6.852970      8.425283      3.537514
  Au      7.825673      6.499610      5.273729
  Au      9.531798      8.523286      4.418119
  Au      8.201513      9.764578      8.662571
  Fe      7.012709      7.403638      7.742662
17
Coordinates from ORCA-job pbe E -3436.730638202222
  Au      8.763016      7.215517      9.711331
  Au      8.595732      5.250660      7.681947
  Au      6.203251      8.360655     10.068521
  Au      4.423204      7.072427      8.290521
  Au      5.319176      9.658863      7.708471
  Au      5.198222      7.626040      5.621028
  Au      5.876772      5.154735      6.792965
  Au      9.693906     10.469643      6.416815
  Au      7.162903     11.506677      6.789881
  Au      8.025464     10.880486      4.186018
  Au      5.384832     10.349047      5.001093
  Au      9.720064      7.755535      7.086880
  Au      6.852373      8.428563      3.538123
  Au      7.826511      6.501905      5.274372
  Au      9.534437      8.522110      4.415045
  Au      8.205958      9.760502      8.664462
  Fe      7.010503      7.403714      7.740839
17
Coordinates from ORCA-job pbe E -3436.730648843734
  Au      8.759332      7.212853      9.711517
  Au      8.600380      5.253212      7.681124
  Au      6.203855      8.362793     10.067342
  Au      4.423980      7.071032      8.295574
  Au      5.313783      9.659363      7.708948
  Au      5.196313      7.625052      5.619821
  Au      5.877810      5.154847      6.795775
  Au      9.692429     10.469180      6.415249
  Au      7.161725     11.499232      6.791884
  Au      8.029253     10.882096      4.187007
  Au      5.383689     10.350457      4.997650
  Au      9.718015      7.756048      7.088554
  Au      6.853602      8.432408      3.539435
  Au      7.826570      6.504195      5.274600
  Au      9.536277      8.518175      4.411912
  Au      8.211104      9.760035      8.664906
  Fe      7.008207      7.406103      7.737013
17
Coordinates from ORCA-job pbe E -3436.730655892587
  Au      8.757498      7.213425      9.710152
  Au      8.600732      5.251807      7.683091
  Au      6.204090      8.363468     10.067143
  Au      4.423853      7.071043      8.297042
  Au      5.313845      9.658292      7.708363
  Au      5.196458      7.624342      5.620032
  Au      5.877847      5.155263      6.795803
  Au      9.694102     10.469864      6.414067
  Au      7.160574     11.497733      6.792444
  Au      8.029905     10.883049      4.187645
  Au      5.383431     10.349721      4.997551
  Au      9.717648      7.757109      7.086388
  Au      6.854592      8.434042      3.539134
  Au      7.826796      6.504580      5.274918
  Au      9.536314      8.517244      4.410932
  Au      8.212618      9.760848      8.667567
  Fe      7.006020      7.405249      7.736042
17
Coordinates from ORCA-job pbe E -3436.730659000120
  Au      8.756882      7.214441      9.707167
  Au      8.600057      5.251281      7.682780
  Au      6.203302      8.364901     10.066091
  Au      4.424571      7.070076      8.297312
  Au      5.310837      9.658950      7.708688
  Au      5.195795      7.623607      5.620307
  Au      5.877578      5.155784      6.795707
  Au      9.696430     10.471587      6.414112
  Au      7.160055     11.495764      6.793865
  Au      8.030447     10.883027      4.189899
  Au      5.383869     10.348139      4.997676
  Au      9.718275      7.757437      7.084344
  Au      6.854914      8.434763      3.541277
  Au      7.827354      6.502545      5.276212
  Au      9.536717      8.516189      4.410406
  Au      8.214356      9.762348      8.668203
  Fe      7.004881      7.406240      7.734267
17
Coordinates from ORCA-job pbe E -3436.730660736184
  Au      8.757245      7.215933      9.705132
  Au      8.599395      5.250916      7.683042
  Au      6.203545      8.366468     10.065624
  Au      4.424372      7.069683      8.297387
  Au      5.310491      9.658294      7.709652
  Au      5.195190      7.622967      5.620011
  Au      5.877405      5.155306      6.795759
  Au      9.698205     10.472123      6.415092
  Au      7.160616     11.495522      6.794634
  Au      8.030861     10.882855      4.191048
  Au      5.383989     10.347029      4.998123
  Au      9.716988      7.757970      7.083410
  Au      6.855569      8.434049      3.541116
  Au      7.828078      6.502203      5.275027
  Au      9.536012      8.516414      4.410748
  Au      8.214947      9.763483      8.668807
  Fe      7.003416      7.405863      7.733700
