11
E=  -1136.10948302;c=0;m=3
Au      9.928930409268180      4.452837108826380      9.040396221288580
Au     10.248385028558650      7.220247930941850      8.818963201088380
Au      6.854942235435950      9.865086078714700      9.318036724600599
Au      7.025770968610710      4.645708972001600      9.451943090521929
Au      6.909076669210230      7.246425074565680      9.426037874211310
Au      9.524229614501730      4.254985942255950      6.185333264510440
Au      6.658562735000230      4.287711001232690      6.557065638652900
Au      8.378687684082960      8.758352882507319      7.395089790117340
Au      6.609816581731290      7.036142032689920      6.054349537669440
Au      9.682723279774040      6.999796409726370      5.795410843531250
Cr      8.311837813825941      5.964401686537640      7.668899483808020
