11
Coordinates from ORCA-job pbe E -2402.466355117360
  Au      9.928930      4.452837      9.040396
  Au     10.248385      7.220248      8.818963
  Au      6.854942      9.865086      9.318037
  Au      7.025771      4.645709      9.451943
  Au      6.909077      7.246425      9.426038
  Au      9.524230      4.254986      6.185333
  Au      6.658563      4.287711      6.557066
  Au      8.378688      8.758353      7.395090
  Au      6.609817      7.036142      6.054350
  Au      9.682723      6.999796      5.795411
  Cr      8.311838      5.964402      7.668899
11
Coordinates from ORCA-job pbe E -2402.467425091002
  Au      9.956062      4.441078      9.035970
  Au     10.248648      7.230841      8.826296
  Au      6.867947      9.918339      9.294118
  Au      7.016474      4.598734      9.468302
  Au      6.882170      7.253972      9.461508
  Au      9.528568      4.246094      6.179489
  Au      6.656169      4.275590      6.530596
  Au      8.379391      8.749878      7.396009
  Au      6.602379      7.047231      6.056165
  Au      9.686801      7.013703      5.788674
  Cr      8.308356      5.956235      7.674399
11
Coordinates from ORCA-job pbe E -2402.467679937949
  Au      9.972687      4.450332      9.035747
  Au     10.251830      7.250423      8.823065
  Au      6.886440      9.860158      9.274606
  Au      7.002497      4.613709      9.486601
  Au      6.863061      7.261342      9.485087
  Au      9.525404      4.241793      6.183945
  Au      6.651693      4.284044      6.513763
  Au      8.374179      8.727473      7.404360
  Au      6.603531      7.066651      6.050911
  Au      9.696736      7.016021      5.774692
  Cr      8.304906      5.959750      7.678749
11
Coordinates from ORCA-job pbe E -2402.468083516985
  Au      9.982617      4.460653      9.030064
  Au     10.258163      7.254716      8.816231
  Au      6.870283      9.865041      9.301250
  Au      6.995583      4.643340      9.494306
  Au      6.846792      7.239185      9.505004
  Au      9.521754      4.233538      6.190244
  Au      6.654759      4.293062      6.501361
  Au      8.383090      8.714578      7.391962
  Au      6.607967      7.069543      6.041313
  Au      9.707311      7.000916      5.760897
  Cr      8.304643      5.957123      7.678895
11
Coordinates from ORCA-job pbe E -2402.468243228308
  Au      9.982352      4.468863      9.028104
  Au     10.258889      7.246835      8.819408
  Au      6.878663      9.877556      9.292495
  Au      7.002164      4.623003      9.487367
  Au      6.844581      7.243245      9.505838
  Au      9.520550      4.237420      6.192235
  Au      6.656540      4.300788      6.500245
  Au      8.378173      8.723193      7.396816
  Au      6.605202      7.060862      6.041290
  Au      9.703140      6.995361      5.766300
  Cr      8.302710      5.954568      7.681427
11
Coordinates from ORCA-job pbe E -2402.468285252067
  Au      9.987066      4.475628      9.029394
  Au     10.259927      7.251191      8.817212
  Au      6.881526      9.870104      9.292153
  Au      7.002905      4.620552      9.487058
  Au      6.839919      7.245534      9.509997
  Au      9.519281      4.235905      6.194696
  Au      6.654046      4.306823      6.495244
  Au      8.380165      8.712334      7.393967
  Au      6.606704      7.064716      6.038934
  Au      9.700676      6.994139      5.769007
  Cr      8.300748      5.954769      7.683863
11
Coordinates from ORCA-job pbe E -2402.468324279083
  Au      9.993644      4.482110      9.032102
  Au     10.263692      7.256589      8.814682
  Au      6.884075      9.863573      9.290095
  Au      7.003729      4.621174      9.486918
  Au      6.834836      7.240453      9.515607
  Au      9.517882      4.232376      6.197254
  Au      6.649461      4.313104      6.488851
  Au      8.378914      8.710158      7.395513
  Au      6.607869      7.070054      6.034434
  Au      9.700463      6.988082      5.768936
  Cr      8.298398      5.954023      7.687135
11
Coordinates from ORCA-job pbe E -2402.468352732928
  Au      9.999487      4.489413      9.035671
  Au     10.269488      7.260815      8.809679
  Au      6.880157      9.859527      9.294536
  Au      7.006326      4.618353      9.485152
  Au      6.832168      7.237008      9.518192
  Au      9.514827      4.226889      6.201933
  Au      6.643997      4.320818      6.483359
  Au      8.379751      8.711499      7.394937
  Au      6.610900      7.074700      6.027906
  Au      9.699770      6.979518      5.769572
  Cr      8.296091      5.953155      7.690589
11
Coordinates from ORCA-job pbe E -2402.468368656831
  Au     10.004187      4.494574      9.038479
  Au     10.274494      7.264148      8.803892
  Au      6.875605      9.857515      9.292121
  Au      7.009531      4.612020      9.484079
  Au      6.832817      7.231102      9.518950
  Au      9.510321      4.222638      6.207175
  Au      6.638682      4.328544      6.479151
  Au      8.381238      8.712843      7.395615
  Au      6.615535      7.080614      6.023992
  Au      9.696869      6.975230      5.773180
  Cr      8.293685      5.952467      7.694890
11
Coordinates from ORCA-job pbe E -2402.468376345027
  Au     10.004210      4.495567      9.039997
  Au     10.277167      7.265224      8.799441
  Au      6.871636      9.854820      9.293902
  Au      7.010567      4.608798      9.485333
  Au      6.834116      7.229571      9.517121
  Au      9.507632      4.220909      6.210400
  Au      6.636647      4.331114      6.478940
  Au      8.382365      8.715744      7.395488
  Au      6.619121      7.082768      6.021189
  Au      9.696522      6.974300      5.773472
  Cr      8.292980      5.952879      7.696243
11
Coordinates from ORCA-job pbe E -2402.468382023197
  Au     10.002414      4.495013      9.041020
  Au     10.279953      7.264864      8.794792
  Au      6.867335      9.852090      9.292993
  Au      7.011673      4.605870      9.488086
  Au      6.835318      7.227379      9.515867
  Au      9.505014      4.221142      6.212651
  Au      6.635137      4.333293      6.480361
  Au      8.383518      8.717971      7.395816
  Au      6.623521      7.084700      6.019069
  Au      9.696418      6.975562      5.773537
  Cr      8.292661      5.953810      7.697334
11
Coordinates from ORCA-job pbe E -2402.468387323180
  Au      9.999388      4.493866      9.042698
  Au     10.283675      7.264079      8.789525
  Au      6.862835      9.848984      9.291622
  Au      7.013859      4.603426      9.491629
  Au      6.834866      7.225042      9.515870
  Au      9.503045      4.222532      6.213867
  Au      6.633052      4.335966      6.482559
  Au      8.384784      8.719386      7.396595
  Au      6.628305      7.086282      6.015826
  Au      9.696720      6.977020      5.773017
  Cr      8.292435      5.955112      7.698318
11
Coordinates from ORCA-job pbe E -2402.468401061701
  Au      9.990053      4.489547      9.047960
  Au     10.296574      7.260255      8.775054
  Au      6.847141      9.840662      9.285285
  Au      7.022808      4.597411      9.501559
  Au      6.832377      7.218662      9.518184
  Au      9.498028      4.227338      6.215317
  Au      6.625702      4.345000      6.489608
  Au      8.388216      8.722009      7.399734
  Au      6.642171      7.091473      6.005914
  Au      9.697774      6.980349      5.771619
  Cr      8.292119      5.958988      7.701291
11
Coordinates from ORCA-job pbe E -2402.468429153440
  Au      9.967955      4.478265      9.060279
  Au     10.327094      7.250439      8.742749
  Au      6.810009      9.823065      9.269322
  Au      7.048055      4.585260      9.523970
  Au      6.824240      7.204978      9.524754
  Au      9.487701      4.238667      6.216891
  Au      6.607541      4.367801      6.505568
  Au      8.395805      8.726065      7.409030
  Au      6.673068      7.102552      5.981812
  Au      9.699924      6.986754      5.768943
  Cr      8.291571      5.967848      7.708209
11
Coordinates from ORCA-job pbe E -2402.468452814756
  Au      9.935306      4.457787      9.077227
  Au     10.377051      7.230796      8.694966
  Au      6.745907      9.796543      9.237380
  Au      7.093672      4.568920      9.559849
  Au      6.809600      7.185208      9.537675
  Au      9.471287      4.255955      6.217166
  Au      6.577086      4.408707      6.530041
  Au      8.406421      8.729803      7.426555
  Au      6.721806      7.120777      5.944905
  Au      9.703292      6.995653      5.765667
  Cr      8.291537      5.981547      7.720095
11
Coordinates from ORCA-job pbe E -2402.468499928986
  Au      9.943967      4.458842      9.072212
  Au     10.370780      7.232668      8.705542
  Au      6.756119      9.803556      9.241544
  Au      7.090396      4.574652      9.556278
  Au      6.805970      7.189096      9.537990
  Au      9.476173      4.252589      6.216329
  Au      6.580310      4.405883      6.524103
  Au      8.402619      8.725587      7.425600
  Au      6.712658      7.117475      5.947621
  Au      9.702568      6.992349      5.765735
  Cr      8.291405      5.978999      7.718571
11
Coordinates from ORCA-job pbe E -2402.468614098074
  Au      9.944151      4.436710      9.066569
  Au     10.399032      7.214622      8.696701
  Au      6.718036      9.801855      9.216977
  Au      7.131322      4.580387      9.582710
  Au      6.780900      7.185121      9.548211
  Au      9.474422      4.256397      6.214152
  Au      6.559310      4.440854      6.527883
  Au      8.401098      8.715593      7.443362
  Au      6.730971      7.126464      5.922179
  Au      9.701908      6.990111      5.766142
  Cr      8.291813      5.983582      7.726639
11
Coordinates from ORCA-job pbe E -2402.468707715963
  Au      9.948469      4.407842      9.052124
  Au     10.421670      7.191906      8.693211
  Au      6.672685      9.802032      9.187229
  Au      7.175770      4.589637      9.613072
  Au      6.761417      7.185352      9.549096
  Au      9.469361      4.257364      6.212404
  Au      6.540062      4.472829      6.531680
  Au      8.401196      8.709488      7.463223
  Au      6.749151      7.138360      5.903163
  Au      9.699668      6.990033      5.771261
  Cr      8.293514      5.986853      7.735063
11
Coordinates from ORCA-job pbe E -2402.468825438948
  Au      9.966061      4.369657      9.019409
  Au     10.425908      7.167093      8.707967
  Au      6.634317      9.812970      9.159962
  Au      7.223349      4.611760      9.650263
  Au      6.741425      7.194599      9.533650
  Au      9.464678      4.251592      6.209555
  Au      6.528800      4.495282      6.527905
  Au      8.399303      8.704736      7.484169
  Au      6.757640      7.148388      5.894306
  Au      9.695346      6.990551      5.782629
  Cr      8.296136      5.985066      7.741712
11
Coordinates from ORCA-job pbe E -2402.468932031832
  Au      9.969911      4.333730      8.996814
  Au     10.432783      7.145395      8.708694
  Au      6.590638      9.810638      9.127770
  Au      7.269723      4.626335      9.695005
  Au      6.725373      7.196229      9.518902
  Au      9.448959      4.252433      6.202066
  Au      6.518806      4.517757      6.529860
  Au      8.403857      8.706771      7.502693
  Au      6.778482      7.160569      5.887719
  Au      9.695841      6.996728      5.791806
  Cr      8.298587      5.985110      7.750195
11
Coordinates from ORCA-job pbe E -2402.469031395777
  Au      9.993937      4.302805      8.952600
  Au     10.397972      7.135282      8.744849
  Au      6.570330      9.820152      9.101192
  Au      7.290768      4.657181      9.735466
  Au      6.731195      7.211340      9.489390
  Au      9.430522      4.240985      6.186231
  Au      6.533206      4.506251      6.510661
  Au      8.414871      8.714927      7.511329
  Au      6.769064      7.170066      5.921737
  Au      9.699102      7.000319      5.806568
  Cr      8.301996      5.972387      7.751502
11
Coordinates from ORCA-job pbe E -2402.469145965567
  Au      9.984393      4.295555      8.954632
  Au     10.406729      7.132642      8.734533
  Au      6.545526      9.803865      9.073866
  Au      7.316042      4.653238      9.764651
  Au      6.722506      7.202009      9.491317
  Au      9.411555      4.247869      6.175502
  Au      6.525508      4.524332      6.508057
  Au      8.428574      8.719140      7.518870
  Au      6.787683      7.178526      5.922092
  Au      9.703838      7.002612      5.808045
  Cr      8.300607      5.971907      7.759961
11
Coordinates from ORCA-job pbe E -2402.469284498168
  Au      9.983307      4.280971      8.936464
  Au     10.405941      7.124824      8.749281
  Au      6.510928      9.792100      9.022597
  Au      7.349338      4.663696      9.802383
  Au      6.720534      7.200457      9.497630
  Au      9.395943      4.250422      6.157433
  Au      6.518882      4.539317      6.491102
  Au      8.449170      8.720215      7.531281
  Au      6.791531      7.193672      5.943209
  Au      9.707813      7.001606      5.812355
  Cr      8.299577      5.964414      7.767792
11
Coordinates from ORCA-job pbe E -2402.469585769840
  Au      9.990817      4.261246      8.890969
  Au     10.373613      7.118244      8.807519
  Au      6.478413      9.781242      8.938845
  Au      7.411288      4.701531      9.875074
  Au      6.718739      7.204623      9.501800
  Au      9.380546      4.246220      6.120394
  Au      6.517917      4.548715      6.430013
  Au      8.490322      8.719427      7.545529
  Au      6.771446      7.218121      6.004057
  Au      9.707903      6.992852      5.821721
  Cr      8.291959      5.939474      7.775606
11
Coordinates from ORCA-job pbe E -2402.469882772280
  Au     10.002562      4.238775      8.846038
  Au     10.340006      7.100059      8.872571
  Au      6.443047      9.771151      8.853476
  Au      7.476413      4.743996      9.941891
  Au      6.725091      7.215284      9.505995
  Au      9.372458      4.237998      6.088248
  Au      6.519419      4.561074      6.364490
  Au      8.522983      8.719720      7.557636
  Au      6.746954      7.247601      6.069493
  Au      9.700919      6.981195      5.831077
  Cr      8.283111      5.914843      7.780612
11
Coordinates from ORCA-job pbe E -2402.470280997503
  Au     10.016118      4.225335      8.809572
  Au     10.292815      7.077591      8.944319
  Au      6.415816      9.760818      8.774570
  Au      7.534921      4.788146      9.995695
  Au      6.751183      7.232764      9.512504
  Au      9.377514      4.222984      6.062957
  Au      6.529668      4.572176      6.283428
  Au      8.557644      8.722424      7.564053
  Au      6.700243      7.277071      6.149018
  Au      9.687308      6.962559      5.837789
  Cr      8.269733      5.889829      7.777621
11
Coordinates from ORCA-job pbe E -2402.470900588763
  Au     10.036197      4.215601      8.787031
  Au     10.244023      7.044412      9.012984
  Au      6.388285      9.747765      8.697618
  Au      7.598955      4.826854     10.044429
  Au      6.782890      7.253922      9.517034
  Au      9.388960      4.204977      6.046268
  Au      6.544551      4.598654      6.194070
  Au      8.586898      8.721875      7.565626
  Au      6.644061      7.313655      6.231190
  Au      9.666985      6.936189      5.843567
  Cr      8.251158      5.867791      7.771708
11
Coordinates from ORCA-job pbe E -2402.471538426404
  Au     10.057484      4.208537      8.768355
  Au     10.191664      7.007225      9.082400
  Au      6.362982      9.733113      8.620860
  Au      7.665248      4.865098     10.088564
  Au      6.816519      7.277708      9.519015
  Au      9.400708      4.188462      6.029473
  Au      6.562277      4.629266      6.104812
  Au      8.614538      8.720038      7.565577
  Au      6.586735      7.348608      6.316968
  Au      9.644301      6.907588      5.849941
  Cr      8.230509      5.846052      7.765562
11
Coordinates from ORCA-job pbe E -2402.472029421986
  Au     10.082865      4.188445      8.745738
  Au     10.141907      6.963119      9.151026
  Au      6.332050      9.716969      8.543649
  Au      7.761766      4.913442     10.141154
  Au      6.825913      7.297648      9.513396
  Au      9.412063      4.169804      6.017585
  Au      6.574863      4.683484      6.020244
  Au      8.638938      8.712963      7.572452
  Au      6.538096      7.384286      6.382418
  Au      9.617664      6.876501      5.858602
  Cr      8.206840      5.825036      7.765263
11
Coordinates from ORCA-job pbe E -2402.472550275621
  Au     10.057000      4.220264      8.731946
  Au     10.065820      7.016088      9.149507
  Au      6.381652      9.667095      8.451387
  Au      7.752986      4.888526     10.146599
  Au      6.866191      7.288569      9.527226
  Au      9.376395      4.176142      6.025361
  Au      6.615664      4.663611      5.969813
  Au      8.708610      8.698653      7.583496
  Au      6.506523      7.385408      6.506347
  Au      9.603770      6.915198      5.853597
  Cr      8.198351      5.812142      7.766248
11
Coordinates from ORCA-job pbe E -2402.473922435745
  Au     10.054540      4.204960      8.730442
  Au     10.074417      7.003713      9.160154
  Au      6.345917      9.629967      8.397316
  Au      7.787214      4.897676     10.164498
  Au      6.869372      7.290004      9.538835
  Au      9.359897      4.168974      6.024128
  Au      6.616572      4.704121      5.953591
  Au      8.720123      8.701562      7.597254
  Au      6.500779      7.403452      6.520853
  Au      9.606949      6.911594      5.853363
  Cr      8.197183      5.815673      7.771091
11
Coordinates from ORCA-job pbe E -2402.476322450324
  Au     10.038020      4.166909      8.723885
  Au     10.109084      6.977711      9.166643
  Au      6.274555      9.568907      8.299369
  Au      7.826123      4.908699     10.187071
  Au      6.882410      7.300574      9.568054
  Au      9.337029      4.167025      6.024340
  Au      6.611773      4.770151      5.950893
  Au      8.736208      8.708529      7.638448
  Au      6.492913      7.412146      6.527220
  Au      9.616514      6.918157      5.848133
  Cr      8.208334      5.832886      7.777470
11
Coordinates from ORCA-job pbe E -2402.477451163972
  Au     10.029522      4.138938      8.727613
  Au     10.145332      6.953822      9.164768
  Au      6.230400      9.557052      8.266622
  Au      7.815284      4.910041     10.189469
  Au      6.904855      7.320026      9.587987
  Au      9.344312      4.173490      6.021811
  Au      6.608817      4.797463      5.964624
  Au      8.731478      8.708878      7.657153
  Au      6.477810      7.400136      6.515572
  Au      9.622982      6.925053      5.840122
  Cr      8.222172      5.846795      7.775785
11
Coordinates from ORCA-job pbe E -2402.477267008871
  Au     10.034248      4.125099      8.725518
  Au     10.165905      6.925554      9.179537
  Au      6.177149      9.501872      8.175346
  Au      7.817505      4.914191     10.207301
  Au      6.942388      7.345369      9.617579
  Au      9.335345      4.166912      6.020544
  Au      6.618932      4.845936      5.943590
  Au      8.748887      8.694387      7.687047
  Au      6.444907      7.424754      6.551356
  Au      9.617882      6.931049      5.826911
  Cr      8.229817      5.856572      7.776797
11
Coordinates from ORCA-job pbe E -2402.478025459613
  Au     10.042658      4.147693      8.736067
  Au     10.201117      6.926552      9.154725
  Au      6.159331      9.526839      8.224777
  Au      7.751841      4.899684     10.177559
  Au      6.953332      7.341086      9.629093
  Au      9.321099      4.141329      6.035906
  Au      6.625555      4.820857      5.970940
  Au      8.733413      8.700276      7.696294
  Au      6.459230      7.414807      6.515919
  Au      9.633563      6.940562      5.804588
  Cr      8.251825      5.872010      7.765659
11
Coordinates from ORCA-job pbe E -2402.478181557637
  Au     10.033443      4.127480      8.735965
  Au     10.192211      6.919467      9.165642
  Au      6.170551      9.551237      8.218419
  Au      7.770443      4.900062     10.187019
  Au      6.954178      7.356759      9.619105
  Au      9.350677      4.164955      6.025694
  Au      6.626587      4.819748      5.965541
  Au      8.734636      8.692062      7.697557
  Au      6.433069      7.397615      6.520941
  Au      9.620379      6.936989      5.807209
  Cr      8.246789      5.865323      7.768432
11
Coordinates from ORCA-job pbe E -2402.478319872471
  Au     10.037201      4.137109      8.731406
  Au     10.186576      6.919071      9.173441
  Au      6.181067      9.550495      8.213789
  Au      7.774227      4.903141     10.186819
  Au      6.953291      7.351291      9.616906
  Au      9.347679      4.157112      6.033601
  Au      6.632350      4.822980      5.956612
  Au      8.737133      8.685787      7.700921
  Au      6.429829      7.399386      6.525227
  Au      9.607186      6.940583      5.804249
  Cr      8.246422      5.864742      7.768556
11
Coordinates from ORCA-job pbe E -2402.478481480257
  Au     10.038545      4.152487      8.737912
  Au     10.191081      6.919598      9.184260
  Au      6.196053      9.550776      8.203960
  Au      7.755658      4.897713     10.179112
  Au      6.970533      7.351376      9.621649
  Au      9.354887      4.150717      6.047028
  Au      6.647177      4.826089      5.940190
  Au      8.743486      8.669347      7.711306
  Au      6.407773      7.396886      6.536783
  Au      9.576780      6.947863      5.784237
  Cr      8.250990      5.868844      7.765090
11
Coordinates from ORCA-job pbe E -2402.478560976812
  Au     10.034881      4.151019      8.743820
  Au     10.190878      6.915977      9.198103
  Au      6.207220      9.559301      8.194605
  Au      7.745149      4.894413     10.178153
  Au      6.985998      7.359281      9.622566
  Au      9.368786      4.154448      6.050861
  Au      6.662640      4.826009      5.925254
  Au      8.748303      8.661295      7.716438
  Au      6.386214      7.386694      6.552305
  Au      9.548679      6.953250      5.766233
  Cr      8.254215      5.870008      7.763187
11
Coordinates from ORCA-job pbe E -2402.478651793913
  Au     10.033870      4.154741      8.753656
  Au     10.195493      6.915687      9.210420
  Au      6.216839      9.560326      8.189596
  Au      7.729431      4.887477     10.175270
  Au      7.000355      7.361752      9.630160
  Au      9.383584      4.150007      6.065549
  Au      6.677402      4.834420      5.905416
  Au      8.757248      8.656497      7.723600
  Au      6.374728      7.380304      6.559060
  Au      9.506474      6.956495      5.736489
  Cr      8.257538      5.873987      7.762308
11
Coordinates from ORCA-job pbe E -2402.478710191535
  Au     10.020004      4.145305      8.782034
  Au     10.192632      6.913114      9.234978
  Au      6.237564      9.570886      8.181070
  Au      7.705297      4.871264     10.173290
  Au      7.028831      7.379838      9.634848
  Au      9.417006      4.173003      6.062951
  Au      6.708915      4.835474      5.876360
  Au      8.774225      8.653781      7.715544
  Au      6.349508      7.357987      6.590920
  Au      9.438492      6.957530      5.695315
  Cr      8.260489      5.873512      7.764216
11
Coordinates from ORCA-job pbe E -2402.478819806709
  Au     10.025874      4.146178      8.785981
  Au     10.184173      6.911382      9.255586
  Au      6.247900      9.567064      8.187408
  Au      7.696489      4.873639     10.176179
  Au      7.037010      7.375890      9.645204
  Au      9.429277      4.158472      6.086478
  Au      6.733101      4.847401      5.847210
  Au      8.789021      8.658414      7.713804
  Au      6.353869      7.358829      6.590887
  Au      9.376300      6.957294      5.658837
  Cr      8.259948      5.877132      7.763953
11
Coordinates from ORCA-job pbe E -2402.478921896933
  Au     10.018876      4.141290      8.788451
  Au     10.180625      6.911923      9.253086
  Au      6.245229      9.556161      8.192861
  Au      7.702053      4.872283     10.176784
  Au      7.034670      7.375667      9.649906
  Au      9.436196      4.165839      6.092551
  Au      6.731525      4.851743      5.850029
  Au      8.793785      8.660330      7.710277
  Au      6.373220      7.365040      6.577121
  Au      9.358904      6.953545      5.650669
  Cr      8.257880      5.877874      7.769790
11
Coordinates from ORCA-job pbe E -2402.479027384907
  Au     10.013155      4.129928      8.796428
  Au     10.161619      6.905177      9.262451
  Au      6.241387      9.541802      8.206461
  Au      7.709533      4.874733     10.180540
  Au      7.037046      7.380865      9.655938
  Au      9.452371      4.177212      6.098429
  Au      6.744095      4.855286      5.846271
  Au      8.806100      8.660975      7.695396
  Au      6.402524      7.381817      6.562284
  Au      9.310494      6.946687      5.627604
  Cr      8.254640      5.877214      7.779723
11
Coordinates from ORCA-job pbe E -2402.479043059902
  Au     10.014464      4.133013      8.798452
  Au     10.163422      6.907367      9.260484
  Au      6.240874      9.542146      8.210340
  Au      7.704022      4.870205     10.176642
  Au      7.040146      7.379585      9.657015
  Au      9.453059      4.177355      6.099059
  Au      6.741157      4.852156      5.851967
  Au      8.803828      8.658914      7.693750
  Au      6.404968      7.386459      6.556004
  Au      9.311844      6.947066      5.627148
  Cr      8.255178      5.877430      7.780664
11
Coordinates from ORCA-job pbe E -2402.479055714903
  Au     10.015998      4.133596      8.800159
  Au     10.162470      6.908968      9.265191
  Au      6.241872      9.543495      8.210653
  Au      7.697057      4.863924     10.174333
  Au      7.048112      7.379508      9.658031
  Au      9.455817      4.179990      6.099324
  Au      6.742437      4.849832      5.857655
  Au      8.802257      8.656129      7.692626
  Au      6.408097      7.391006      6.549033
  Au      9.302123      6.948283      5.621084
  Cr      8.256723      5.876964      7.783437
11
Coordinates from ORCA-job pbe E -2402.479059360531
  Au     10.015592      4.134519      8.799364
  Au     10.161146      6.910106      9.266765
  Au      6.242222      9.542558      8.210101
  Au      7.696374      4.863261     10.174215
  Au      7.049553      7.378195      9.657980
  Au      9.454867      4.179686      6.098392
  Au      6.741300      4.849109      5.860969
  Au      8.802490      8.655992      7.692422
  Au      6.407813      7.391682      6.547643
  Au      9.304244      6.949915      5.620334
  Cr      8.257360      5.876672      7.783340
11
Coordinates from ORCA-job pbe E -2402.479063761527
  Au     10.015319      4.134738      8.796842
  Au     10.156986      6.910990      9.272576
  Au      6.243828      9.541657      8.208294
  Au      7.696688      4.862429     10.175825
  Au      7.050007      7.377819      9.657078
  Au      9.454969      4.182183      6.095117
  Au      6.739941      4.848034      5.866024
  Au      8.804806      8.655690      7.691470
  Au      6.408969      7.391636      6.546030
  Au      9.303165      6.951191      5.618076
  Cr      8.258284      5.875329      7.784195
11
Coordinates from ORCA-job pbe E -2402.479066584511
  Au     10.014466      4.134363      8.794968
  Au     10.152421      6.911049      9.279826
  Au      6.246420      9.540887      8.206866
  Au      7.698131      4.863530     10.177210
  Au      7.049453      7.377518      9.656391
  Au      9.457246      4.183306      6.093772
  Au      6.740083      4.847784      5.867260
  Au      8.808954      8.655651      7.691174
  Au      6.409294      7.390571      6.546542
  Au      9.297114      6.952201      5.613530
  Cr      8.259381      5.874835      7.783986
11
Coordinates from ORCA-job pbe E -2402.479069021610
  Au     10.014755      4.133504      8.791113
  Au     10.147881      6.910136      9.286393
  Au      6.247773      9.541741      8.204918
  Au      7.701930      4.866195     10.178839
  Au      7.046069      7.377777      9.654036
  Au      9.458144      4.185375      6.090026
  Au      6.737416      4.845852      5.870876
  Au      8.811624      8.654906      7.691591
  Au      6.409819      7.389662      6.547417
  Au      9.297098      6.952525      5.612960
  Cr      8.260454      5.874023      7.783355
11
Coordinates from ORCA-job pbe E -2402.479070745028
  Au     10.015324      4.133028      8.789284
  Au     10.144651      6.909245      9.291848
  Au      6.249270      9.543966      8.202935
  Au      7.705551      4.867990     10.179344
  Au      7.042830      7.376984      9.652410
  Au      9.458562      4.186482      6.087336
  Au      6.735854      4.843962      5.872944
  Au      8.813673      8.654465      7.692506
  Au      6.410337      7.389004      6.548523
  Au      9.295547      6.952711      5.611925
  Cr      8.261364      5.873858      7.782472
11
Coordinates from ORCA-job pbe E -2402.479068226650
  Au     10.016715      4.132682      8.786801
  Au     10.140044      6.907745      9.300510
  Au      6.252311      9.542120      8.198859
  Au      7.711912      4.871970     10.179688
  Au      7.037256      7.377044      9.648863
  Au      9.458122      4.187707      6.083971
  Au      6.732794      4.842246      5.875654
  Au      8.816592      8.652297      7.695519
  Au      6.411987      7.389624      6.550890
  Au      9.292382      6.953245      5.610283
  Cr      8.262848      5.875016      7.780488
11
Coordinates from ORCA-job pbe E -2402.479071524968
  Au     10.018050      4.133945      8.787202
  Au     10.139570      6.908658      9.300187
  Au      6.253058      9.545890      8.204258
  Au      7.711693      4.871920     10.178635
  Au      7.035652      7.376257      9.648109
  Au      9.457388      4.185849      6.085223
  Au      6.732901      4.840943      5.875767
  Au      8.816353      8.651545      7.695227
  Au      6.412047      7.388195      6.547960
  Au      9.293191      6.953069      5.609608
  Cr      8.263061      5.875424      7.779350
11
Coordinates from ORCA-job pbe E -2402.479070770968
  Au     10.018476      4.134169      8.788800
  Au     10.145626      6.907951      9.294376
  Au      6.246578      9.545154      8.201492
  Au      7.706546      4.867005     10.178094
  Au      7.041570      7.375579      9.652411
  Au      9.455531      4.184524      6.089347
  Au      6.734943      4.843761      5.874202
  Au      8.814541      8.653727      7.694050
  Au      6.412430      7.391302      6.546884
  Au      9.294352      6.953026      5.610465
  Cr      8.262371      5.875498      7.781407
11
Coordinates from ORCA-job pbe E -2402.479074431045
  Au     10.019180      4.134689      8.787667
  Au     10.141976      6.908306      9.298753
  Au      6.251295      9.544711      8.201760
  Au      7.709635      4.869118     10.178022
  Au      7.038097      7.375310      9.649837
  Au      9.455675      4.185402      6.087153
  Au      6.732957      4.842053      5.876306
  Au      8.815188      8.652655      7.695447
  Au      6.412589      7.390325      6.546648
  Au      9.293406      6.953329      5.609634
  Cr      8.262966      5.875798      7.780299
11
Coordinates from ORCA-job pbe E -2402.479074967166
  Au     10.020213      4.135053      8.787133
  Au     10.141155      6.908311      9.300509
  Au      6.250800      9.544257      8.201743
  Au      7.711049      4.869812     10.177559
  Au      7.036530      7.375048      9.648911
  Au      9.454600      4.185075      6.086712
  Au      6.731469      4.841733      5.877850
  Au      8.816327      8.651515      7.696148
  Au      6.413730      7.390902      6.545723
  Au      9.293565      6.953603      5.609497
  Cr      8.263526      5.876385      7.779741
11
Coordinates from ORCA-job pbe E -2402.479075832850
  Au     10.022149      4.136204      8.786321
  Au     10.140524      6.908281      9.302693
  Au      6.251313      9.544017      8.201591
  Au      7.712162      4.869423     10.176672
  Au      7.034736      7.374002      9.647997
  Au      9.452694      4.184644      6.086749
  Au      6.729383      4.840822      5.880516
  Au      8.816660      8.651339      7.697174
  Au      6.415204      7.391965      6.543412
  Au      9.293996      6.953884      5.609054
  Cr      8.264141      5.877113      7.779347
11
Coordinates from ORCA-job pbe E -2402.479076577290
  Au     10.025436      4.138009      8.785001
  Au     10.140211      6.908712      9.304893
  Au      6.251972      9.543576      8.200513
  Au      7.713294      4.868139     10.175244
  Au      7.032040      7.371628      9.647081
  Au      9.449417      4.184145      6.087083
  Au      6.725871      4.839743      5.884973
  Au      8.817003      8.651210      7.698741
  Au      6.418214      7.393866      6.539442
  Au      9.294668      6.954506      5.609192
  Cr      8.264837      5.878161      7.779361
11
Coordinates from ORCA-job pbe E -2402.479076809310
  Au     10.025785      4.138389      8.784675
  Au     10.140620      6.908774      9.304887
  Au      6.251351      9.543237      8.200761
  Au      7.713705      4.867812     10.174898
  Au      7.030988      7.371184      9.646756
  Au      9.448601      4.183965      6.086976
  Au      6.724746      4.839137      5.886405
  Au      8.817217      8.651752      7.699161
  Au      6.419531      7.394689      6.538182
  Au      9.295468      6.954367      5.609309
  Cr      8.264951      5.878388      7.779515
