16
E=  -1708.82652460;c=0;m=4
Au      5.868921708689360      7.748681860090110      6.803496344676640
Au      8.704643847164229      7.925246935177560      5.637287066980570
Au      9.673838756530820     10.247102469493480      7.117606288912350
Au      7.050803979891060     10.186764175289049      6.088414719607340
Au     10.162729198316880      6.526752024964640      7.745518305792850
Au      7.655739716541600      5.591121137718970      6.862040225309780
Au     10.473705306287250      8.798855180969470      9.432167510446019
Au      3.928407195244850      7.868716525758740      9.031681625687179
Au      5.441812023112930      9.765160095388550     10.509938406280851
Au      5.805155012611140      6.992902179732270     10.976129631861181
Au      7.519911454675770     10.744610893139050      8.893390531487171
Au      8.129314961205811      6.100107864836800      9.675413087421150
Au      8.061896896982971      8.710427547818620     10.811965082442610
Au      5.438908216604380      5.560543858781730      8.533731584156859
Au      4.830452939747470     10.195344721755131      7.754440633872200
Fe      8.311627126393480      8.295719659085870      8.147230955065259
