16
Coordinates from ORCA-job pbe E -3300.898576924554
  Au      5.868922      7.748682      6.803496
  Au      8.704644      7.925247      5.637287
  Au      9.673839     10.247102      7.117606
  Au      7.050804     10.186764      6.088415
  Au     10.162729      6.526752      7.745518
  Au      7.655740      5.591121      6.862040
  Au     10.473705      8.798855      9.432168
  Au      3.928407      7.868717      9.031682
  Au      5.441812      9.765160     10.509938
  Au      5.805155      6.992902     10.976130
  Au      7.519911     10.744611      8.893391
  Au      8.129315      6.100108      9.675413
  Au      8.061897      8.710428     10.811965
  Au      5.438908      5.560544      8.533732
  Au      4.830453     10.195345      7.754441
  Fe      8.311627      8.295720      8.147231
16
Coordinates from ORCA-job pbe E -3300.901252055124
  Au      5.874557      7.751942      6.817730
  Au      8.694786      7.925002      5.642102
  Au      9.658320     10.242202      7.126762
  Au      7.043227     10.170641      6.103537
  Au     10.146154      6.530227      7.753445
  Au      7.643744      5.608886      6.871406
  Au     10.458652      8.796804      9.434400
  Au      3.961987      7.871770      9.024385
  Au      5.467186      9.747257     10.487640
  Au      5.825968      7.008764     10.948471
  Au      7.515603     10.724841      8.903171
  Au      8.119787      6.120386      9.678113
  Au      8.048354      8.705438     10.791733
  Au      5.454139      5.588327      8.527850
  Au      4.852336     10.171480      7.757160
  Fe      8.293069      8.294091      8.152547
16
Coordinates from ORCA-job pbe E -3300.902137102811
  Au      5.875082      7.753833      6.825380
  Au      8.700395      7.925468      5.637550
  Au      9.649468     10.239179      7.132275
  Au      7.042707     10.157731      6.105388
  Au     10.136493      6.532141      7.758238
  Au      7.639667      5.621550      6.868753
  Au     10.456420      8.794051      9.425011
  Au      3.964285      7.871714      9.025911
  Au      5.479488      9.745030     10.479963
  Au      5.837256      7.012269     10.940697
  Au      7.518941     10.721123      8.918171
  Au      8.121024      6.129914      9.690442
  Au      8.042733      8.704845     10.790111
  Au      5.461046      5.594603      8.517514
  Au      4.860477     10.162773      7.749183
  Fe      8.272385      8.291833      8.155866
16
Coordinates from ORCA-job pbe E -3300.903183053370
  Au      5.873664      7.755655      6.834607
  Au      8.719464      7.926568      5.626205
  Au      9.643731     10.234585      7.134906
  Au      7.046475     10.144726      6.105398
  Au     10.129577      6.535170      7.759443
  Au      7.639754      5.635161      6.864062
  Au     10.453583      8.790097      9.411499
  Au      3.961318      7.871696      9.034927
  Au      5.481568      9.741538     10.470150
  Au      5.838458      7.013721     10.931071
  Au      7.526619     10.724563      8.934612
  Au      8.127664      6.135122      9.706380
  Au      8.045437      8.706360     10.794281
  Au      5.463455      5.600986      8.511339
  Au      4.863838     10.154188      7.745263
  Fe      8.243264      8.287921      8.156307
16
Coordinates from ORCA-job pbe E -3300.904183489394
  Au      5.869716      7.755733      6.837252
  Au      8.743359      7.928108      5.614541
  Au      9.642549     10.229045      7.135529
  Au      7.051722     10.136177      6.104724
  Au     10.127186      6.539590      7.757717
  Au      7.642740      5.644552      6.860029
  Au     10.446996      8.786437      9.400814
  Au      3.949293      7.871028      9.044639
  Au      5.482584      9.741732     10.464962
  Au      5.839352      7.012910     10.927183
  Au      7.536120     10.732681      8.946150
  Au      8.137788      6.134697      9.719296
  Au      8.048157      8.708460     10.802197
  Au      5.463879      5.600161      8.509363
  Au      4.863496     10.153610      7.743141
  Fe      8.212930      8.283136      8.152917
16
Coordinates from ORCA-job pbe E -3300.905025907336
  Au      5.860480      7.754424      6.837155
  Au      8.767118      7.930267      5.607863
  Au      9.644725     10.221738      7.134881
  Au      7.056849     10.129374      6.105993
  Au     10.127588      6.545978      7.753621
  Au      7.646006      5.652665      6.858527
  Au     10.435105      8.783539      9.396016
  Au      3.937068      7.870368      9.052855
  Au      5.482843      9.742199     10.459479
  Au      5.839790      7.011145     10.922924
  Au      7.548219     10.741689      8.952103
  Au      8.150956      6.132173      9.727361
  Au      8.053256      8.710755     10.810170
  Au      5.463232      5.599472      8.510483
  Au      4.861815     10.154300      7.743916
  Fe      8.182820      8.277971      8.147105
16
Coordinates from ORCA-job pbe E -3300.905695037641
  Au      5.845696      7.751931      6.833970
  Au      8.788197      7.932994      5.606881
  Au      9.648308     10.213132      7.135109
  Au      7.060861     10.121892      6.108625
  Au     10.129068      6.554412      7.749736
  Au      7.648100      5.661189      6.857998
  Au     10.420786      8.781150      9.394671
  Au      3.925738      7.870014      9.060065
  Au      5.487559      9.742307     10.453080
  Au      5.844300      7.010465     10.917584
  Au      7.562357     10.747727      8.956325
  Au      8.165853      6.131813      9.732773
  Au      8.054017      8.712134     10.816385
  Au      5.463267      5.598772      8.511853
  Au      4.860927     10.155391      7.744620
  Fe      8.152833      8.272733      8.140777
16
Coordinates from ORCA-job pbe E -3300.906239344156
  Au      5.825430      7.748398      6.829333
  Au      8.805135      7.935733      5.609983
  Au      9.653643     10.204347      7.135021
  Au      7.063255     10.113099      6.113013
  Au     10.131944      6.563556      7.745771
  Au      7.647934      5.671037      6.858995
  Au     10.407159      8.779407      9.396277
  Au      3.917228      7.869770      9.065397
  Au      5.492616      9.742497     10.444487
  Au      5.849500      7.008687     10.909841
  Au      7.578464     10.751516      8.959559
  Au      8.182046      6.133671      9.736496
  Au      8.054101      8.713313     10.823052
  Au      5.464159      5.600156      8.512898
  Au      4.860917     10.155031      7.745482
  Fe      8.124337      8.267840      8.134846
16
Coordinates from ORCA-job pbe E -3300.906667765168
  Au      5.800618      7.743963      6.821291
  Au      8.818812      7.938297      5.614255
  Au      9.659740     10.196543      7.135344
  Au      7.065065     10.103006      6.117781
  Au     10.135865      6.572456      7.742691
  Au      7.647153      5.681769      6.859599
  Au     10.394525      8.778337      9.399673
  Au      3.910070      7.870067      9.070738
  Au      5.499411      9.742700     10.435479
  Au      5.856058      7.007288     10.901876
  Au      7.596001     10.752411      8.963232
  Au      8.199347      6.137976      9.739638
  Au      8.050818      8.714019     10.830149
  Au      5.465257      5.600739      8.513796
  Au      4.861377     10.155181      7.745575
  Fe      8.097753      8.263305      8.129334
16
Coordinates from ORCA-job pbe E -3300.906981350918
  Au      5.773264      7.738671      6.811804
  Au      8.829541      7.940195      5.617957
  Au      9.665913     10.189668      7.135215
  Au      7.066632     10.090923      6.123255
  Au     10.139546      6.580338      7.740361
  Au      7.644956      5.694888      6.860716
  Au     10.382550      8.777547      9.403792
  Au      3.905659      7.870348      9.075362
  Au      5.504596      9.744063     10.425786
  Au      5.862000      7.003644     10.893096
  Au      7.614365     10.752147      8.967666
  Au      8.216482      6.144153      9.743123
  Au      8.049132      8.715003     10.839118
  Au      5.467686      5.602124      8.513499
  Au      4.862363     10.155006      7.744945
  Fe      8.073181      8.259338      8.124757
16
Coordinates from ORCA-job pbe E -3300.907190397882
  Au      5.744608      7.733186      6.799320
  Au      8.840468      7.941868      5.618492
  Au      9.671313     10.184474      7.135332
  Au      7.068551     10.077227      6.127908
  Au     10.143463      6.586896      7.738666
  Au      7.643797      5.708875      6.859366
  Au     10.370850      8.777279      9.407141
  Au      3.903297      7.871857      9.082008
  Au      5.510726      9.745014     10.417371
  Au      5.867624      7.001840     10.886369
  Au      7.632496     10.750233      8.973865
  Au      8.233812      6.150912      9.747670
  Au      8.043656      8.715769     10.850035
  Au      5.469111      5.601643      8.513239
  Au      4.863691     10.155392      7.743218
  Fe      8.050404      8.255593      8.120451
16
Coordinates from ORCA-job pbe E -3300.907308548887
  Au      5.716421      7.726843      6.787268
  Au      8.851858      7.942735      5.617032
  Au      9.675531     10.179746      7.133860
  Au      7.070745     10.061595      6.132196
  Au     10.145184      6.591674      7.737446
  Au      7.640531      5.725727      6.858597
  Au     10.357011      8.776662      9.411294
  Au      3.903984      7.872650      9.088012
  Au      5.514464      9.748667     10.409377
  Au      5.873465      6.995733     10.879272
  Au      7.650129     10.749256      8.981108
  Au      8.248674      6.158848      9.753482
  Au      8.043231      8.717173     10.862755
  Au      5.472935      5.602538      8.510683
  Au      4.864756     10.155750      7.740846
  Fe      8.028948      8.252459      8.117224
16
Coordinates from ORCA-job pbe E -3300.907355570645
  Au      5.698748      7.723245      6.777261
  Au      8.862139      7.943741      5.612688
  Au      9.676472     10.178919      7.133323
  Au      7.071921     10.049730      6.133720
  Au     10.146484      6.593178      7.736717
  Au      7.640226      5.736826      6.853975
  Au     10.348655      8.776769      9.411016
  Au      3.907039      7.875100      9.094479
  Au      5.518023      9.750299     10.406060
  Au      5.875643      6.995201     10.878316
  Au      7.660699     10.747367      8.986972
  Au      8.258978      6.162650      9.757711
  Au      8.036920      8.717839     10.874199
  Au      5.472731      5.601308      8.510060
  Au      4.866307     10.155382      7.738399
  Fe      8.016881      8.250504      8.115556
16
Coordinates from ORCA-job pbe E -3300.907385040792
  Au      5.691856      7.720970      6.772477
  Au      8.869333      7.943765      5.608570
  Au      9.675449     10.179820      7.131553
  Au      7.072501     10.042875      6.132395
  Au     10.145089      6.591432      7.737006
  Au      7.638324      5.743364      6.850703
  Au     10.341349      8.776567      9.412652
  Au      3.911126      7.875847      9.097638
  Au      5.519017      9.753348     10.406037
  Au      5.877957      6.992110     10.878631
  Au      7.664747     10.747484      8.989715
  Au      8.261104      6.164778      9.759971
  Au      8.036612      8.718444     10.880647
  Au      5.474231      5.601282      8.508662
  Au      4.866170     10.155702      7.737518
  Fe      8.013004      8.250270      8.116277
16
Coordinates from ORCA-job pbe E -3300.907410662063
  Au      5.690744      7.720178      6.769906
  Au      8.877578      7.944094      5.603984
  Au      9.671795     10.182184      7.129736
  Au      7.072169     10.035577      6.129787
  Au     10.142100      6.588096      7.737435
  Au      7.636729      5.749271      6.845077
  Au     10.335733      8.776323      9.409600
  Au      3.917386      7.877065      9.099696
  Au      5.518514      9.757066     10.407985
  Au      5.877562      6.989510     10.881884
  Au      7.665393     10.747268      8.991736
  Au      8.260222      6.164992      9.761338
  Au      8.035331      8.719072     10.887915
  Au      5.475348      5.601400      8.508037
  Au      4.867502     10.155034      7.736941
  Fe      8.013763      8.250927      8.119395
16
Coordinates from ORCA-job pbe E -3300.907419177351
  Au      5.692633      7.720294      6.770262
  Au      8.881994      7.944366      5.602815
  Au      9.670240     10.183860      7.128131
  Au      7.071686     10.034033      6.126688
  Au     10.140897      6.585839      7.737386
  Au      7.635977      5.749665      6.841645
  Au     10.332901      8.776424      9.409654
  Au      3.919875      7.877313      9.100283
  Au      5.518567      9.757715     10.410586
  Au      5.877460      6.989722     10.884299
  Au      7.663606     10.747082      8.991103
  Au      8.257245      6.164433      9.760489
  Au      8.033872      8.718697     10.888259
  Au      5.476307      5.601165      8.509142
  Au      4.867819     10.155773      7.738290
  Fe      8.016790      8.251676      8.121419
16
Coordinates from ORCA-job pbe E -3300.907425307316
  Au      5.693824      7.720850      6.772211
  Au      8.884859      7.944917      5.603883
  Au      9.669298     10.184785      7.127103
  Au      7.070773     10.032601      6.125086
  Au     10.140401      6.584844      7.737136
  Au      7.635268      5.750002      6.839323
  Au     10.332470      8.776602      9.407805
  Au      3.920478      7.877259      9.099015
  Au      5.517691      9.758092     10.412143
  Au      5.875910      6.989985     10.886228
  Au      7.662057     10.746493      8.990115
  Au      8.255006      6.163650      9.759144
  Au      8.033230      8.718309     10.888063
  Au      5.477981      5.601275      8.510507
  Au      4.869597     10.156221      7.739580
  Fe      8.019026      8.252172      8.123108
