11
Coordinates from ORCA-job pbe E -2402.472192636313
  Au     10.129540      7.304611     10.727152
  Au      9.962408      4.539648     10.719914
  Au      7.175296      7.631588     11.396031
  Au      7.296808      4.890191     11.757929
  Au      6.251934      4.512931      9.004847
  Au      7.235416      9.260172      6.912877
  Au      8.501414      8.878571      9.239765
  Au      6.080862      7.214985      8.526606
  Au      8.702199      6.869253      7.146734
  Au      9.071859      4.336212      7.978085
  Cr      8.170311      6.050826      9.625710
11
Coordinates from ORCA-job pbe E -2402.474864053564
  Au     10.149552      7.321851     10.739466
  Au      9.962772      4.517190     10.756520
  Au      7.173285      7.642656     11.417195
  Au      7.312641      4.885463     11.776462
  Au      6.208324      4.552865      8.988401
  Au      7.208901      9.200957      6.887661
  Au      8.507595      8.837320      9.277705
  Au      6.086223      7.227289      8.503411
  Au      8.694092      6.881774      7.134628
  Au      9.099339      4.360872      7.929275
  Cr      8.175323      6.060754      9.624925
11
Coordinates from ORCA-job pbe E -2402.476471737995
  Au     10.200688      7.299641     10.766082
  Au      9.956496      4.502718     10.818274
  Au      7.156607      7.626895     11.460747
  Au      7.347311      4.890137     11.808167
  Au      6.148328      4.598515      8.970441
  Au      7.185826      9.184133      6.872969
  Au      8.490843      8.835797      9.268761
  Au      6.079789      7.228461      8.464751
  Au      8.682325      6.878099      7.101301
  Au      9.147060      4.378839      7.881007
  Cr      8.182773      6.065757      9.623149
11
Coordinates from ORCA-job pbe E -2402.477268384321
  Au     10.199140      7.296920     10.751437
  Au      9.950423      4.515379     10.848039
  Au      7.151686      7.615008     11.463748
  Au      7.377024      4.901621     11.826088
  Au      6.112164      4.616438      8.979644
  Au      7.205841      9.212253      6.891919
  Au      8.484930      8.787481      9.285091
  Au      6.068424      7.221336      8.429910
  Au      8.657490      6.865726      7.070971
  Au      9.187819      4.392249      7.872262
  Cr      8.183105      6.064579      9.616543
11
Coordinates from ORCA-job pbe E -2402.477710618780
  Au     10.195417      7.283126     10.746150
  Au      9.958126      4.518020     10.849784
  Au      7.151442      7.602723     11.470252
  Au      7.385192      4.904341     11.841417
  Au      6.086257      4.628180      9.001700
  Au      7.222815      9.223253      6.895280
  Au      8.476623      8.768533      9.291659
  Au      6.066523      7.224980      8.392713
  Au      8.630628      6.860495      7.053629
  Au      9.223719      4.413952      7.879293
  Cr      8.181305      6.061387      9.613775
11
Coordinates from ORCA-job pbe E -2402.478552302622
  Au     10.184041      7.245538     10.741249
  Au      9.972353      4.509537     10.851896
  Au      7.161496      7.574900     11.484551
  Au      7.400582      4.892463     11.869490
  Au      6.022221      4.673445      9.065071
  Au      7.239520      9.265468      6.872605
  Au      8.461565      8.748877      9.305403
  Au      6.059563      7.220366      8.315001
  Au      8.582112      6.844493      7.014925
  Au      9.317498      4.467201      7.907637
  Cr      8.177097      6.046699      9.607823
11
Coordinates from ORCA-job pbe E -2402.479607832552
  Au     10.169020      7.214452     10.737030
  Au      9.978858      4.485130     10.846175
  Au      7.185927      7.551231     11.496047
  Au      7.406113      4.868817     11.880641
  Au      5.950248      4.742642      9.144126
  Au      7.246758      9.268122      6.865671
  Au      8.435383      8.733501      9.300276
  Au      6.064082      7.222578      8.238889
  Au      8.540989      6.839342      6.985680
  Au      9.429880      4.533729      7.943926
  Cr      8.170788      6.029445      9.597190
11
Coordinates from ORCA-job pbe E -2402.481338963017
  Au     10.146765      7.195046     10.732604
  Au      9.977080      4.440715     10.834283
  Au      7.229209      7.528392     11.509076
  Au      7.397978      4.824405     11.870239
  Au      5.871552      4.821751      9.251158
  Au      7.242900      9.267669      6.838685
  Au      8.400354      8.732305      9.279398
  Au      6.056619      7.231404      8.186237
  Au      8.537123      6.827916      6.967306
  Au      9.558791      4.614659      7.982908
  Cr      8.159675      6.004726      9.583756
11
Coordinates from ORCA-job pbe E -2402.483561165688
  Au     10.124120      7.195989     10.727095
  Au      9.968516      4.398031     10.819892
  Au      7.283795      7.508464     11.526023
  Au      7.370653      4.775858     11.833215
  Au      5.793692      4.907688      9.365645
  Au      7.234950      9.257078      6.807168
  Au      8.363151      8.730508      9.246575
  Au      6.039156      7.228360      8.170223
  Au      8.566856      6.829332      6.962857
  Au      9.689209      4.678207      8.008928
  Cr      8.143949      5.979476      9.568028
11
Coordinates from ORCA-job pbe E -2402.485665805457
  Au     10.108547      7.188709     10.714414
  Au      9.955643      4.378689     10.815036
  Au      7.337347      7.489407     11.542587
  Au      7.345847      4.732059     11.797541
  Au      5.709078      4.986348      9.486308
  Au      7.230656      9.248727      6.779316
  Au      8.325576      8.711751      9.232083
  Au      6.026486      7.223966      8.140106
  Au      8.599055      6.826213      6.961010
  Au      9.814521      4.747961      8.017652
  Cr      8.125288      5.955159      9.549597
11
Coordinates from ORCA-job pbe E -2402.487693474092
  Au     10.095733      7.175147     10.696639
  Au      9.945253      4.378694     10.809622
  Au      7.386545      7.463077     11.562555
  Au      7.326646      4.693686     11.776457
  Au      5.616277      5.078857      9.589459
  Au      7.234279      9.234128      6.754903
  Au      8.297525      8.681865      9.225683
  Au      6.011191      7.200337      8.110081
  Au      8.625166      6.833049      6.957433
  Au      9.935925      4.819398      8.024374
  Cr      8.103508      5.930753      9.528444
11
Coordinates from ORCA-job pbe E -2402.489405964331
  Au     10.089080      7.148956     10.668672
  Au      9.935168      4.385946     10.803583
  Au      7.427524      7.426842     11.576198
  Au      7.313515      4.659666     11.768330
  Au      5.531378      5.173789      9.689314
  Au      7.236893      9.216954      6.734516
  Au      8.269285      8.653196      9.227314
  Au      6.001516      7.180415      8.068318
  Au      8.649196      6.840499      6.952658
  Au     10.043543      4.899659      8.043520
  Cr      8.080950      5.903068      9.503226
11
Coordinates from ORCA-job pbe E -2402.490949289664
  Au     10.089910      7.126138     10.628916
  Au      9.925416      4.388393     10.797125
  Au      7.457655      7.386288     11.584107
  Au      7.298600      4.628766     11.765235
  Au      5.458754      5.276388      9.777401
  Au      7.239624      9.193694      6.717159
  Au      8.241992      8.628976      9.229652
  Au      5.995083      7.153022      8.038407
  Au      8.676201      6.852317      6.954359
  Au     10.137714      4.983100      8.067588
  Cr      8.057097      5.871908      9.475700
11
Coordinates from ORCA-job pbe E -2402.492416920730
  Au     10.088870      7.103618     10.580234
  Au      9.914004      4.372015     10.790314
  Au      7.484835      7.342097     11.582932
  Au      7.282294      4.596040     11.760320
  Au      5.412911      5.380345      9.875087
  Au      7.238643      9.180703      6.699006
  Au      8.211881      8.611814      9.231517
  Au      5.991048      7.131397      8.001003
  Au      8.691665      6.862647      6.946343
  Au     10.227342      5.072091      8.122528
  Cr      8.034554      5.836223      9.446368
11
Coordinates from ORCA-job pbe E -2402.493917611768
  Au     10.100560      7.087323     10.512665
  Au      9.897943      4.338658     10.788652
  Au      7.490826      7.305725     11.569212
  Au      7.269442      4.570497     11.768171
  Au      5.385155      5.479780      9.947839
  Au      7.231824      9.165786      6.688317
  Au      8.184548      8.601995      9.238602
  Au      5.999912      7.104532      7.978784
  Au      8.708811      6.876202      6.949173
  Au     10.295653      5.162323      8.175123
  Cr      8.013372      5.796170      9.419112
11
Coordinates from ORCA-job pbe E -2402.494747102490
  Au     10.093657      7.062300     10.463833
  Au      9.880105      4.298271     10.784740
  Au      7.521098      7.277616     11.551661
  Au      7.246885      4.533740     11.763675
  Au      5.383304      5.581053     10.030273
  Au      7.224572      9.153640      6.669422
  Au      8.150384      8.597186      9.233347
  Au      6.002497      7.081781      7.955803
  Au      8.721121      6.881345      6.948988
  Au     10.359784      5.267994      8.238494
  Cr      7.994639      5.754065      9.395413
11
Coordinates from ORCA-job pbe E -2402.495110392442
  Au     10.093033      7.077274     10.454939
  Au      9.859253      4.271844     10.786552
  Au      7.512554      7.284276     11.539086
  Au      7.247572      4.523647     11.768522
  Au      5.387830      5.590201     10.035019
  Au      7.212888      9.146647      6.658503
  Au      8.150888      8.619333      9.230400
  Au      6.017436      7.072790      7.976377
  Au      8.729988      6.898948      6.962772
  Au     10.375058      5.266884      8.228209
  Cr      7.991548      5.737147      9.395272
11
Coordinates from ORCA-job pbe E -2402.495341225971
  Au     10.080095      7.074768     10.465748
  Au      9.849099      4.269843     10.781931
  Au      7.521984      7.272866     11.541170
  Au      7.244896      4.509521     11.761632
  Au      5.388631      5.622019     10.068024
  Au      7.211813      9.144487      6.647443
  Au      8.143891      8.618387      9.221083
  Au      6.012393      7.070234      7.969165
  Au      8.734797      6.896543      6.958973
  Au     10.400859      5.287535      8.230369
  Cr      7.989588      5.722788      9.390112
11
Coordinates from ORCA-job pbe E -2402.495553045419
  Au     10.066299      7.074415     10.481449
  Au      9.839495      4.276972     10.770097
  Au      7.509420      7.271811     11.533488
  Au      7.254926      4.498343     11.760366
  Au      5.396673      5.643762     10.088911
  Au      7.215409      9.144755      6.644165
  Au      8.143840      8.615928      9.216736
  Au      6.008936      7.071275      7.970265
  Au      8.736872      6.892055      6.955046
  Au     10.413371      5.291078      8.226928
  Cr      7.992805      5.708597      9.388199
11
Coordinates from ORCA-job pbe E -2402.495685257968
  Au     10.056174      7.075394     10.490249
  Au      9.837136      4.278470     10.756798
  Au      7.481359      7.267152     11.524252
  Au      7.266115      4.489559     11.764354
  Au      5.406282      5.671541     10.112806
  Au      7.226348      9.142212      6.642907
  Au      8.141774      8.608310      9.213384
  Au      6.006480      7.074732      7.971055
  Au      8.738121      6.887046      6.951584
  Au     10.421278      5.301934      8.223144
  Cr      7.996978      5.692639      9.385118
11
Coordinates from ORCA-job pbe E -2402.495794146059
  Au     10.065142      7.084564     10.451814
  Au      9.821330      4.310582     10.766289
  Au      7.494121      7.252852     11.521031
  Au      7.268724      4.474155     11.744898
  Au      5.364732      5.690552     10.134657
  Au      7.221369      9.111206      6.639610
  Au      8.142069      8.597564      9.224374
  Au      6.000230      7.062606      7.996703
  Au      8.802260      6.916918      6.975527
  Au     10.423254      5.296776      8.217843
  Cr      7.974816      5.691213      9.362905
11
Coordinates from ORCA-job pbe E -2402.496023108298
  Au     10.055036      7.085999     10.460394
  Au      9.833438      4.291996     10.764080
  Au      7.480157      7.255610     11.515566
  Au      7.284393      4.473045     11.756674
  Au      5.366018      5.688625     10.133927
  Au      7.226283      9.125200      6.641470
  Au      8.135910      8.605495      9.215649
  Au      5.998084      7.078816      7.992503
  Au      8.785325      6.909458      6.961931
  Au     10.433615      5.286022      8.229638
  Cr      7.979789      5.688723      9.363817
11
Coordinates from ORCA-job pbe E -2402.494284236870
  Au     10.024377      7.109687     10.490980
  Au      9.858154      4.281057     10.753501
  Au      7.473907      7.252672     11.498440
  Au      7.267149      4.491644     11.746040
  Au      5.477339      5.637312     10.107664
  Au      7.221120      9.141677      6.636508
  Au      8.136433      8.644405      9.192385
  Au      5.993790      7.104341      8.024693
  Au      8.782994      6.913688      6.959246
  Au     10.356706      5.221520      8.263092
  Cr      7.986079      5.690987      9.363102
11
Coordinates from ORCA-job pbe E -2402.496247920647
  Au     10.041779      7.094214     10.472054
  Au      9.848800      4.288339     10.767500
  Au      7.469642      7.257589     11.506052
  Au      7.291524      4.476216     11.756605
  Au      5.393700      5.664934     10.126787
  Au      7.229845      9.129574      6.638780
  Au      8.130950      8.622972      9.209979
  Au      5.993812      7.099870      8.004436
  Au      8.793395      6.909227      6.963766
  Au     10.403607      5.254573      8.229690
  Cr      7.980993      5.691481      9.360001
11
Coordinates from ORCA-job pbe E -2402.496322034608
  Au     10.039220      7.089171     10.458355
  Au      9.845898      4.294301     10.770837
  Au      7.468812      7.247045     11.501132
  Au      7.292633      4.469654     11.752137
  Au      5.388103      5.684410     10.144470
  Au      7.231199      9.121089      6.634368
  Au      8.128753      8.618896      9.212913
  Au      5.988469      7.099797      8.009939
  Au      8.803354      6.917009      6.966557
  Au     10.419036      5.263473      8.237658
  Cr      7.972570      5.684144      9.347283
11
Coordinates from ORCA-job pbe E -2402.496402476696
  Au     10.033913      7.087292     10.455327
  Au      9.855800      4.301005     10.775690
  Au      7.468434      7.248481     11.497943
  Au      7.294470      4.468205     11.746935
  Au      5.381759      5.678290     10.147177
  Au      7.232321      9.113973      6.631513
  Au      8.126376      8.622567      9.214706
  Au      5.982064      7.111312      8.020420
  Au      8.816359      6.920458      6.974248
  Au     10.419363      5.250819      8.234508
  Cr      7.967188      5.686588      9.337185
11
Coordinates from ORCA-job pbe E -2402.496457176283
  Au     10.024175      7.084050     10.454659
  Au      9.865002      4.301488     10.781969
  Au      7.455438      7.248938     11.490089
  Au      7.305806      4.468248     11.745794
  Au      5.387126      5.671870     10.150460
  Au      7.234417      9.111954      6.627836
  Au      8.125210      8.633195      9.214953
  Au      5.975183      7.128253      8.030485
  Au      8.824943      6.919676      6.981922
  Au     10.416933      5.236802      8.232840
  Cr      7.963813      5.684514      9.324643
11
Coordinates from ORCA-job pbe E -2402.496472344040
  Au     10.020160      7.081473     10.455362
  Au      9.869856      4.300260     10.783632
  Au      7.452871      7.253431     11.486914
  Au      7.309367      4.471639     11.746323
  Au      5.388789      5.663406     10.143935
  Au      7.234601      9.112294      6.628793
  Au      8.129215      8.637835      9.214901
  Au      5.972384      7.133062      8.035703
  Au      8.822758      6.918647      6.985022
  Au     10.414617      5.231234      8.234076
  Cr      7.963428      5.685709      9.320989
11
Coordinates from ORCA-job pbe E -2402.496482723302
  Au     10.016849      7.078223     10.458859
  Au      9.870942      4.295690     10.782377
  Au      7.448864      7.257519     11.483027
  Au      7.311464      4.475042     11.746968
  Au      5.391375      5.661619     10.143117
  Au      7.233122      9.113539      6.630770
  Au      8.133456      8.639997      9.213335
  Au      5.971732      7.134462      8.036944
  Au      8.818434      6.915522      6.986060
  Au     10.416870      5.233792      8.235381
  Cr      7.964940      5.683584      9.318812
11
Coordinates from ORCA-job pbe E -2402.496492376460
  Au     10.015509      7.073736     10.464754
  Au      9.870574      4.290568     10.779318
  Au      7.443285      7.262920     11.480135
  Au      7.313978      4.481026     11.747273
  Au      5.391389      5.658135     10.141502
  Au      7.231418      9.114354      6.632380
  Au      8.140794      8.640892      9.211765
  Au      5.971945      7.134216      8.038958
  Au      8.811863      6.912260      6.985704
  Au     10.419764      5.239104      8.236093
  Cr      7.967528      5.681779      9.317768
11
Coordinates from ORCA-job pbe E -2402.496497276455
  Au     10.014429      7.071329     10.470372
  Au      9.869784      4.286745     10.775908
  Au      7.440197      7.266149     11.477356
  Au      7.315011      4.483770     11.746902
  Au      5.389736      5.658655     10.143263
  Au      7.229004      9.113819      6.632975
  Au      8.145257      8.639873      9.210023
  Au      5.972974      7.133559      8.040804
  Au      8.809890      6.910884      6.983959
  Au     10.422722      5.244345      8.236865
  Cr      7.969042      5.679862      9.317223
11
Coordinates from ORCA-job pbe E -2402.496501469609
  Au     10.013942      7.069380     10.476285
  Au      9.869791      4.284075     10.773322
  Au      7.436357      7.268493     11.475122
  Au      7.316624      4.486581     11.746404
  Au      5.387058      5.657362     10.144830
  Au      7.227271      9.112778      6.632741
  Au      8.150431      8.638340      9.208058
  Au      5.973684      7.133760      8.044148
  Au      8.809562      6.910785      6.980985
  Au     10.423600      5.248317      8.237098
  Cr      7.969727      5.679121      9.316659
11
Coordinates from ORCA-job pbe E -2402.496504570264
  Au     10.013073      7.067908     10.481539
  Au      9.870692      4.282348     10.772070
  Au      7.433083      7.270099     11.472573
  Au      7.318123      4.487942     11.746246
  Au      5.385381      5.656050     10.146269
  Au      7.225669      9.111956      6.632563
  Au      8.154940      8.636695      9.205923
  Au      5.973932      7.134825      8.047454
  Au      8.810536      6.911281      6.977502
  Au     10.423110      5.250860      8.237468
  Cr      7.969508      5.679026      9.316042
11
Coordinates from ORCA-job pbe E -2402.496506521368
  Au     10.012045      7.066402     10.485804
  Au      9.872311      4.281404     10.772086
  Au      7.429941      7.271441     11.470367
  Au      7.319778      4.488706     11.746391
  Au      5.384981      5.653825     10.146489
  Au      7.224487      9.111741      6.632624
  Au      8.159388      8.635609      9.203806
  Au      5.973581      7.136584      8.050213
  Au      8.811039      6.911543      6.974526
  Au     10.421658      5.252021      8.237782
  Cr      7.968837      5.679714      9.315562
11
Coordinates from ORCA-job pbe E -2402.496507288684
  Au     10.011457      7.065733     10.487436
  Au      9.873189      4.281234     10.772495
  Au      7.428637      7.272020     11.469395
  Au      7.320504      4.488373     11.746587
  Au      5.385613      5.652747     10.146307
  Au      7.224322      9.112071      6.632718
  Au      8.161466      8.635301      9.202756
  Au      5.973222      7.137384      8.050946
  Au      8.810620      6.911329      6.973370
  Au     10.420799      5.252424      8.237934
  Cr      7.968217      5.680373      9.315708
