13
Coordinates from ORCA-job pbe E -2893.393758461178
  Au      8.738332     10.050412      6.883763
  Au      6.180469     10.166816      8.031264
  Au      6.836901     10.160283      2.720459
  Au      9.579708      7.431459      6.613687
  Au      8.561664      8.700424      4.327428
  Au      6.499025     10.794055      5.376710
  Au      7.590379      6.021654      8.001117
  Au      5.320454      7.510078      8.525609
  Au      4.285569      8.776145      6.317596
  Au      4.223876     10.068811      3.879292
  Au      5.782359      7.755886      4.077105
  Au      7.504970      5.970839      5.147393
  Fe      6.940673      8.092307      6.546164
13
Coordinates from ORCA-job pbe E -2893.394776066947
  Au      8.722508     10.033094      6.871181
  Au      6.177946     10.184762      7.985390
  Au      6.859259     10.141504      2.774766
  Au      9.568557      7.474665      6.578894
  Au      8.550003      8.689555      4.347721
  Au      6.501435     10.773569      5.387111
  Au      7.594847      6.028792      7.993253
  Au      5.309519      7.511041      8.517115
  Au      4.288185      8.779026      6.313441
  Au      4.247032     10.053419      3.918262
  Au      5.801759      7.763666      4.096418
  Au      7.488394      5.969528      5.131322
  Fe      6.934936      8.096547      6.532712
13
Coordinates from ORCA-job pbe E -2893.395466662883
  Au      8.724897     10.037736      6.875502
  Au      6.172817     10.196414      7.982194
  Au      6.878072     10.152633      2.764030
  Au      9.577209      7.463134      6.582613
  Au      8.561827      8.683141      4.335273
  Au      6.499769     10.781189      5.390866
  Au      7.603415      6.034823      7.989868
  Au      5.304942      7.508529      8.513310
  Au      4.271113      8.769187      6.327652
  Au      4.221326     10.060815      3.924700
  Au      5.806965      7.768190      4.090637
  Au      7.488292      5.946672      5.142823
  Fe      6.933734      8.096704      6.528118
13
Coordinates from ORCA-job pbe E -2893.395763787362
  Au      8.729795     10.041672      6.876692
  Au      6.158075     10.206944      7.990553
  Au      6.890105     10.155141      2.769536
  Au      9.584293      7.453260      6.576528
  Au      8.575137      8.675023      4.329600
  Au      6.492429     10.784236      5.381099
  Au      7.609249      6.045707      7.984430
  Au      5.308289      7.505206      8.508721
  Au      4.255017      8.763337      6.331867
  Au      4.216649     10.056066      3.938346
  Au      5.817888      7.782667      4.090767
  Au      7.477029      5.929390      5.150478
  Fe      6.930424      8.100517      6.518971
13
Coordinates from ORCA-job pbe E -2893.395975001074
  Au      8.721708     10.036688      6.875573
  Au      6.145808     10.216550      7.983704
  Au      6.909284     10.157988      2.770458
  Au      9.586939      7.454350      6.565076
  Au      8.596608      8.661693      4.332420
  Au      6.489058     10.784065      5.383877
  Au      7.617816      6.058843      7.983267
  Au      5.316195      7.502602      8.505637
  Au      4.237298      8.753918      6.344839
  Au      4.208225     10.055508      3.951481
  Au      5.832888      7.793207      4.093204
  Au      7.457423      5.918497      5.151312
  Fe      6.925130      8.105259      6.506738
13
Coordinates from ORCA-job pbe E -2893.396101915690
  Au      8.707809     10.031587      6.873262
  Au      6.138354     10.215786      7.977556
  Au      6.920044     10.155938      2.777710
  Au      9.591046      7.448552      6.566794
  Au      8.607240      8.659285      4.324096
  Au      6.486667     10.779678      5.384488
  Au      7.626180      6.069532      7.985138
  Au      5.323714      7.506176      8.503883
  Au      4.228558      8.746145      6.353490
  Au      4.211426     10.053242      3.962752
  Au      5.841049      7.807158      4.090708
  Au      7.442416      5.915031      5.152891
  Fe      6.919877      8.111059      6.494818
13
Coordinates from ORCA-job pbe E -2893.396199127507
  Au      8.700185     10.021984      6.875097
  Au      6.133280     10.207828      7.980593
  Au      6.924153     10.153825      2.775325
  Au      9.590341      7.450797      6.564907
  Au      8.618120      8.657665      4.322160
  Au      6.485342     10.777322      5.383166
  Au      7.631834      6.074590      7.991602
  Au      5.335881      7.506435      8.512873
  Au      4.222880      8.744117      6.353311
  Au      4.213783     10.055300      3.962838
  Au      5.840811      7.814684      4.082699
  Au      7.432235      5.919271      5.156300
  Fe      6.915534      8.115350      6.486717
13
Coordinates from ORCA-job pbe E -2893.396257709980
  Au      8.699128     10.017100      6.880851
  Au      6.131751     10.198504      7.983676
  Au      6.922843     10.151973      2.772573
  Au      9.589168      7.448165      6.564964
  Au      8.622426      8.659243      4.320115
  Au      6.485362     10.775760      5.382531
  Au      7.637608      6.077943      7.998287
  Au      5.339325      7.509869      8.517080
  Au      4.225593      8.741477      6.353600
  Au      4.213516     10.056875      3.960514
  Au      5.840514      7.814830      4.073750
  Au      7.424640      5.928576      5.159186
  Fe      6.912505      8.118851      6.480460
13
Coordinates from ORCA-job pbe E -2893.396303844199
  Au      8.700203     10.014709      6.888732
  Au      6.133154     10.192448      7.984143
  Au      6.921231     10.151890      2.772496
  Au      9.588856      7.445162      6.560499
  Au      8.624080      8.660918      4.319639
  Au      6.486616     10.774451      5.384126
  Au      7.640544      6.084238      8.005102
  Au      5.340556      7.510692      8.520411
  Au      4.228991      8.738229      6.349844
  Au      4.211416     10.058776      3.960860
  Au      5.838112      7.814050      4.062147
  Au      7.421502      5.931468      5.166468
  Fe      6.909119      8.122136      6.473118
13
Coordinates from ORCA-job pbe E -2893.396352685506
  Au      8.704633     10.012253      6.898202
  Au      6.136129     10.188867      7.986878
  Au      6.920424     10.151789      2.774786
  Au      9.588779      7.442413      6.554490
  Au      8.622455      8.665424      4.319906
  Au      6.489853     10.773037      5.386698
  Au      7.644855      6.096038      8.011175
  Au      5.338196      7.510242      8.520845
  Au      4.232676      8.733438      6.345961
  Au      4.208487     10.060297      3.961819
  Au      5.838033      7.808263      4.050231
  Au      7.415396      5.930909      5.173597
  Fe      6.904467      8.126199      6.463001
13
Coordinates from ORCA-job pbe E -2893.396399288034
  Au      8.709755     10.009416      6.908249
  Au      6.142011     10.187197      7.991150
  Au      6.915664     10.153915      2.776963
  Au      9.589674      7.440421      6.547442
  Au      8.620547      8.672431      4.322160
  Au      6.494011     10.771030      5.391402
  Au      7.647528      6.112551      8.016634
  Au      5.332766      7.510208      8.517026
  Au      4.237312      8.728424      6.341174
  Au      4.209148     10.059243      3.965009
  Au      5.837957      7.799562      4.038643
  Au      7.408745      5.924295      5.180563
  Fe      6.899261      8.130475      6.451171
13
Coordinates from ORCA-job pbe E -2893.396435267397
  Au      8.713092     10.006052      6.916235
  Au      6.149289     10.187017      7.997498
  Au      6.910418     10.156446      2.779504
  Au      9.590069      7.439380      6.540854
  Au      8.616659      8.681668      4.324513
  Au      6.498380     10.769150      5.396518
  Au      7.650842      6.128300      8.018818
  Au      5.327815      7.509735      8.514173
  Au      4.237536      8.725998      6.337130
  Au      4.214714     10.056966      3.963751
  Au      5.838610      7.788309      4.032033
  Au      7.402302      5.916512      5.184860
  Fe      6.894654      8.133635      6.441701
13
Coordinates from ORCA-job pbe E -2893.396459437791
  Au      8.715098     10.001853      6.922472
  Au      6.155117     10.185905      8.003322
  Au      6.902849     10.160313      2.780030
  Au      9.591084      7.439454      6.534730
  Au      8.614544      8.690539      4.325389
  Au      6.500622     10.767471      5.401519
  Au      7.651206      6.139545      8.020827
  Au      5.324339      7.511418      8.510764
  Au      4.236092      8.726612      6.335192
  Au      4.223770     10.053167      3.960840
  Au      5.839160      7.778582      4.029233
  Au      7.398681      5.909060      5.187774
  Fe      6.891816      8.135248      6.435496
13
Coordinates from ORCA-job pbe E -2893.396471611265
  Au      8.714530      9.998369      6.926130
  Au      6.157368     10.184588      8.007170
  Au      6.899230     10.162975      2.779855
  Au      9.590276      7.438166      6.529588
  Au      8.613997      8.696296      4.324331
  Au      6.501220     10.766551      5.404726
  Au      7.653767      6.144865      8.021140
  Au      5.323116      7.513152      8.510087
  Au      4.231880      8.729828      6.334938
  Au      4.230855     10.049909      3.956772
  Au      5.840238      7.773018      4.029777
  Au      7.397476      5.905754      5.190011
  Fe      6.890427      8.135699      6.433062
13
Coordinates from ORCA-job pbe E -2893.396477830607
  Au      8.714134      9.995619      6.928656
  Au      6.157123     10.182891      8.008679
  Au      6.897455     10.165291      2.779353
  Au      9.590353      7.436779      6.524659
  Au      8.614470      8.699632      4.321897
  Au      6.500552     10.766068      5.406547
  Au      7.653279      6.146703      8.024013
  Au      5.323292      7.514445      8.509287
  Au      4.229385      8.733656      6.335971
  Au      4.234152     10.047332      3.954065
  Au      5.841329      7.770499      4.030433
  Au      7.398502      5.904741      5.191739
  Fe      6.890353      8.135513      6.432288
13
Coordinates from ORCA-job pbe E -2893.396481375324
  Au      8.713552      9.993266      6.930397
  Au      6.155881     10.181688      8.009296
  Au      6.897379     10.166786      2.779209
  Au      9.588893      7.434750      6.520584
  Au      8.615152      8.701314      4.320066
  Au      6.500206     10.765660      5.407262
  Au      7.655545      6.148047      8.025937
  Au      5.322305      7.514983      8.508499
  Au      4.228026      8.737431      6.337317
  Au      4.234752     10.045662      3.952494
  Au      5.842354      7.769749      4.030482
  Au      7.399994      5.904569      5.194047
  Fe      6.890339      8.135262      6.431997
13
Coordinates from ORCA-job pbe E -2893.396483069125
  Au      8.713503      9.992069      6.931706
  Au      6.155233     10.181318      8.009281
  Au      6.897293     10.167631      2.779323
  Au      9.588735      7.432790      6.517985
  Au      8.615466      8.702514      4.318980
  Au      6.500157     10.765300      5.407513
  Au      7.655942      6.149818      8.028557
  Au      5.321601      7.513937      8.507750
  Au      4.228377      8.740077      6.337644
  Au      4.233611     10.044729      3.952247
  Au      5.843349      7.769074      4.030058
  Au      7.400719      5.904785      5.195022
  Fe      6.890394      8.135125      6.431519
