13
E=  -1353.58394253;c=0;m=3
Au      9.994283190907050      5.337560913916380      4.043000760452300
Au     10.246263184879810      4.996632129672930      9.288126772020600
Au      9.627424781004059      5.387953499242260     11.917255538481390
Au      7.481465879724750      5.135581411776120     10.197737680460250
Au      9.329165091977350      7.582494773501770     10.268428665588960
Au      6.642177152854510      7.719466774594510      9.214116568267119
Au      6.242547548351580      5.013901695152260      7.816459077790500
Au      6.771513369099560      7.701806853109520      6.427668930252930
Au      9.172348315245310      8.893739603986891      7.928074019510170
Au     10.365531309049400      4.980583011829670      6.723352319792780
Au      9.545393902509620      7.552687721744530      5.629514527639840
Au      7.697440548850130      5.105827994228820      5.558806373636880
Cr      8.493386925546780      6.359180827244410      7.912659846106220
