13
Coordinates from ORCA-job pbe E -2674.157328176585
  Au      9.994283      5.337561      4.043001
  Au     10.246263      4.996632      9.288127
  Au      9.627425      5.387953     11.917256
  Au      7.481466      5.135581     10.197738
  Au      9.329165      7.582495     10.268429
  Au      6.642177      7.719467      9.214117
  Au      6.242548      5.013902      7.816459
  Au      6.771513      7.701807      6.427669
  Au      9.172348      8.893740      7.928074
  Au     10.365531      4.980583      6.723352
  Au      9.545394      7.552688      5.629515
  Au      7.697441      5.105828      5.558806
  Cr      8.493387      6.359181      7.912660
13
Coordinates from ORCA-job pbe E -2674.159152028014
  Au      9.926205      5.389315      3.994008
  Au     10.280294      4.969455      9.340098
  Au      9.556471      5.439742     11.958909
  Au      7.473812      5.140454     10.205603
  Au      9.321729      7.588888     10.276438
  Au      6.657769      7.707776      9.215061
  Au      6.244065      4.972730      7.816032
  Au      6.787759      7.689867      6.427915
  Au      9.212090      8.903656      7.929849
  Au     10.404442      4.953151      6.675403
  Au      9.539362      7.558321      5.621082
  Au      7.690690      5.110433      5.550986
  Cr      8.514253      6.343630      7.913816
13
Coordinates from ORCA-job pbe E -2674.160022933942
  Au      9.908001      5.402765      4.007299
  Au     10.304118      4.952243      9.314381
  Au      9.538993      5.453049     11.943305
  Au      7.463385      5.154243     10.201344
  Au      9.305735      7.595391     10.272651
  Au      6.661099      7.705343      9.219264
  Au      6.240495      4.937259      7.816762
  Au      6.791437      7.687349      6.424341
  Au      9.245275      8.916567      7.931343
  Au     10.425857      4.936212      6.703369
  Au      9.522850      7.565129      5.623308
  Au      7.680014      5.123783      5.553525
  Cr      8.521681      6.338084      7.914308
13
Coordinates from ORCA-job pbe E -2674.160400829042
  Au      9.919952      5.392895      4.050700
  Au     10.310616      4.947479      9.312076
  Au      9.554677      5.442167     11.901964
  Au      7.456709      5.162060     10.190622
  Au      9.296263      7.600045     10.262047
  Au      6.648904      7.715493      9.201459
  Au      6.236226      4.911910      7.816877
  Au      6.777613      7.697180      6.440607
  Au      9.268947      8.927334      7.932242
  Au     10.432132      4.931526      6.705779
  Au      9.512268      7.569873      5.632803
  Au      7.672468      5.131713      5.563688
  Cr      8.522168      6.337741      7.914338
13
Coordinates from ORCA-job pbe E -2674.160378814887
  Au      9.929060      5.386510      4.037737
  Au     10.315669      4.943442      9.313277
  Au      9.563308      5.436044     11.914984
  Au      7.445721      5.162229     10.188013
  Au      9.292418      7.610347     10.259826
  Au      6.640249      7.722572      9.189969
  Au      6.235881      4.894377      7.816844
  Au      6.768038      7.703865      6.450848
  Au      9.286555      8.932042      7.933209
  Au     10.437706      4.927432      6.705204
  Au      9.508868      7.580690      5.635013
  Au      7.661512      5.131542      5.565722
  Cr      8.523956      6.336325      7.914556
13
Coordinates from ORCA-job pbe E -2674.160512734429
  Au      9.915470      5.396669      4.038119
  Au     10.313077      4.945409      9.314890
  Au      9.550383      5.445791     11.913330
  Au      7.452118      5.162444     10.190164
  Au      9.293757      7.604018     10.261809
  Au      6.643045      7.720396      9.193263
  Au      6.239218      4.892443      7.817098
  Au      6.771164      7.701408      6.447556
  Au      9.289705      8.929377      7.933458
  Au     10.435271      4.929394      6.703316
  Au      9.510651      7.574175      5.633297
  Au      7.668553      5.131479      5.564199
  Cr      8.526529      6.334414      7.914703
13
Coordinates from ORCA-job pbe E -2674.160528767711
  Au      9.914246      5.397667      4.038646
  Au     10.311569      4.946855      9.315130
  Au      9.548734      5.446268     11.912597
  Au      7.451858      5.165059     10.189259
  Au      9.291049      7.603692     10.260881
  Au      6.643817      7.719988      9.194927
  Au      6.242415      4.887699      7.817415
  Au      6.771849      7.700488      6.445834
  Au      9.295829      8.927722      7.933655
  Au     10.433726      4.930801      6.702413
  Au      9.507909      7.573989      5.634101
  Au      7.668183      5.133569      5.565572
  Cr      8.527757      6.333621      7.914772
13
Coordinates from ORCA-job pbe E -2674.160547623775
  Au      9.914031      5.398039      4.037310
  Au     10.308516      4.949477      9.314792
  Au      9.548816      5.445957     11.913946
  Au      7.450694      5.168937     10.191492
  Au      9.286534      7.603420     10.263374
  Au      6.642350      7.721400      9.193257
  Au      6.246838      4.876887      7.818158
  Au      6.770084      7.700939      6.446697
  Au      9.309124      8.926046      7.934662
  Au     10.430635      4.933515      6.701808
  Au      9.503846      7.573800      5.631446
  Au      7.668146      5.136454      5.563357
  Cr      8.529327      6.332547      7.914903
13
Coordinates from ORCA-job pbe E -2674.160560059445
  Au      9.914907      5.397660      4.033931
  Au     10.305642      4.951863      9.315056
  Au      9.549468      5.445297     11.915504
  Au      7.448640      5.173252     10.195168
  Au      9.281256      7.603987     10.267126
  Au      6.641226      7.722597      9.190939
  Au      6.253411      4.867567      7.818126
  Au      6.768574      7.700935      6.448391
  Au      9.321847      8.921704      7.935394
  Au     10.428193      4.936004      6.701148
  Au      9.499513      7.575396      5.628336
  Au      7.666152      5.139073      5.560979
  Cr      8.530112      6.332082      7.915103
13
Coordinates from ORCA-job pbe E -2674.160566698155
  Au      9.915366      5.397391      4.033192
  Au     10.302813      4.954645      9.314622
  Au      9.552821      5.442120     11.920577
  Au      7.443244      5.178630     10.199599
  Au      9.274225      7.607132     10.272647
  Au      6.639321      7.724581      9.187671
  Au      6.263889      4.856114      7.819838
  Au      6.766349      7.700839      6.449036
  Au      9.338719      8.913795      7.937277
  Au     10.424531      4.939814      6.699847
  Au      9.492674      7.576343      5.621410
  Au      7.665030      5.143524      5.554566
  Cr      8.529958      6.332489      7.914918
13
Coordinates from ORCA-job pbe E -2674.160580577076
  Au      9.918022      5.395535      4.030969
  Au     10.301565      4.955981      9.314681
  Au      9.553350      5.441244     11.918231
  Au      7.442470      5.181799     10.203787
  Au      9.270878      7.606794     10.277295
  Au      6.638307      7.725704      9.187944
  Au      6.269191      4.852646      7.820197
  Au      6.764516      7.701139      6.449290
  Au      9.345005      8.909073      7.937674
  Au     10.424036      4.940841      6.700392
  Au      9.490178      7.578467      5.618069
  Au      7.663007      5.144364      5.551508
  Cr      8.528418      6.333831      7.915165
13
Coordinates from ORCA-job pbe E -2674.160589904805
  Au      9.918042      5.395801      4.031792
  Au     10.301557      4.956064      9.314002
  Au      9.553584      5.440799     11.917892
  Au      7.442158      5.183568     10.207374
  Au      9.268679      7.606889     10.280321
  Au      6.637444      7.726907      9.187558
  Au      6.273996      4.850499      7.818422
  Au      6.763254      7.700928      6.448874
  Au      9.349680      8.904370      7.937351
  Au     10.424088      4.941667      6.700312
  Au      9.488456      7.578817      5.615835
  Au      7.661966      5.145357      5.550542
  Cr      8.526038      6.335750      7.914925
13
Coordinates from ORCA-job pbe E -2674.160599665498
  Au      9.918506      5.395188      4.030664
  Au     10.300614      4.957669      9.314114
  Au      9.553699      5.440240     11.916392
  Au      7.440537      5.187418     10.209396
  Au      9.264730      7.606563     10.284278
  Au      6.636000      7.728872      9.187506
  Au      6.282165      4.844317      7.820916
  Au      6.760477      7.701103      6.448511
  Au      9.360312      8.896978      7.939405
  Au     10.423544      4.943185      6.700968
  Au      9.484484      7.579557      5.611875
  Au      7.661933      5.147170      5.546198
  Cr      8.521940      6.339157      7.914977
13
Coordinates from ORCA-job pbe E -2674.160610537216
  Au      9.919110      5.394933      4.030613
  Au     10.298982      4.959858      9.313275
  Au      9.554641      5.437987     11.918394
  Au      7.439397      5.190778     10.211834
  Au      9.261042      7.606663     10.287437
  Au      6.634061      7.731526      9.187094
  Au      6.288717      4.835358      7.821034
  Au      6.757411      7.701359      6.447507
  Au      9.373139      8.892305      7.939807
  Au     10.421517      4.945852      6.700508
  Au      9.480448      7.579264      5.608951
  Au      7.662078      5.149342      5.544119
  Cr      8.518397      6.342191      7.914628
13
Coordinates from ORCA-job pbe E -2674.160629401126
  Au      9.919069      5.395993      4.027808
  Au     10.293546      4.965286      9.312186
  Au      9.555201      5.436362     11.922995
  Au      7.437747      5.197329     10.214675
  Au      9.253608      7.606176     10.291030
  Au      6.629940      7.737414      9.185178
  Au      6.302707      4.811077      7.821276
  Au      6.750104      7.701893      6.447006
  Au      9.405975      8.882723      7.943192
  Au     10.416231      4.952251      6.699870
  Au      9.472401      7.578037      5.604348
  Au      7.662705      5.153682      5.541622
  Cr      8.509708      6.349194      7.914016
13
Coordinates from ORCA-job pbe E -2674.160634347183
  Au      9.918367      5.396132      4.025897
  Au     10.290623      4.968884      9.311758
  Au      9.554153      5.435951     11.925163
  Au      7.436942      5.199513     10.214217
  Au      9.252035      7.605349     10.293295
  Au      6.628354      7.739892      9.184912
  Au      6.308316      4.798517      7.821805
  Au      6.746903      7.701917      6.446683
  Au      9.422123      8.879980      7.942302
  Au     10.412936      4.955293      6.699499
  Au      9.469141      7.579000      5.605287
  Au      7.663527      5.154309      5.540710
  Cr      8.505520      6.352679      7.913674
13
Coordinates from ORCA-job pbe E -2674.160637183006
  Au      9.918939      5.396721      4.024362
  Au     10.288694      4.970237      9.312114
  Au      9.552718      5.436209     11.924805
  Au      7.437196      5.199352     10.214422
  Au      9.252260      7.606064     10.292100
  Au      6.628567      7.740440      9.185677
  Au      6.309672      4.793607      7.821849
  Au      6.745700      7.701465      6.446735
  Au      9.427835      8.879954      7.944141
  Au     10.411655      4.956481      6.699903
  Au      9.469171      7.579141      5.604213
  Au      7.662519      5.153949      5.541155
  Cr      8.504015      6.353796      7.913727
13
Coordinates from ORCA-job pbe E -2674.160638038215
  Au      9.918460      5.397088      4.024773
  Au     10.288722      4.969622      9.312304
  Au      9.552622      5.437846     11.924308
  Au      7.436786      5.198268     10.214112
  Au      9.253384      7.606288     10.291937
  Au      6.629418      7.739465      9.185799
  Au      6.308588      4.795054      7.821308
  Au      6.746636      7.701035      6.447184
  Au      9.425640      8.880621      7.943985
  Au     10.411795      4.955877      6.700019
  Au      9.470075      7.579766      5.604816
  Au      7.662131      5.153455      5.540904
  Cr      8.504685      6.353033      7.913750
