13
Coordinates from ORCA-job pbe E -2893.364700898423
  Au      7.868315      7.863913      4.017317
  Au      5.095557      7.131640      4.305362
  Au      4.739996      6.065193      6.953668
  Au      7.154547      5.491271      5.496242
  Au      9.214788      7.237931      6.498386
  Au      7.273859      6.117075      8.314530
  Au      5.880589      9.891963      4.567337
  Au      8.059421      8.877780      8.576359
  Au      5.999739     10.517154      7.386472
  Au      3.941019      8.771699      6.383990
  Au      5.286201      8.145758      8.864423
  Au      8.416307      9.944255      5.928835
  Fe      6.577815      8.004687      6.440781
13
Coordinates from ORCA-job pbe E -2893.367711540798
  Au      7.887618      7.844159      4.013921
  Au      5.062772      7.149659      4.337962
  Au      4.777052      6.100515      6.933424
  Au      7.161857      5.507452      5.534941
  Au      9.175075      7.287165      6.501985
  Au      7.251007      6.099216      8.277308
  Au      5.904207      9.910238      4.604965
  Au      8.092124      8.859461      8.544052
  Au      5.993276     10.501760      7.347184
  Au      3.979980      8.722057      6.379882
  Au      5.267234      8.165138      8.868563
  Au      8.378151      9.908815      5.948724
  Fe      6.577799      8.004685      6.440790
13
Coordinates from ORCA-job pbe E -2893.368683041392
  Au      7.898217      7.821339      4.006227
  Au      5.045725      7.161321      4.331795
  Au      4.775735      6.086368      6.932868
  Au      7.173576      5.489004      5.530892
  Au      9.185915      7.301654      6.495150
  Au      7.245729      6.074226      8.291639
  Au      5.909443      9.935307      4.590603
  Au      8.109115      8.847780      8.550355
  Au      5.981573     10.520195      7.351269
  Au      3.969221      8.707403      6.386860
  Au      5.256723      8.187887      8.875940
  Au      8.379407      9.923153      5.949297
  Fe      6.577773      8.004681      6.440807
13
Coordinates from ORCA-job pbe E -2893.370663457205
  Au      7.899786      7.751647      4.017097
  Au      5.028369      7.206667      4.332439
  Au      4.789609      6.044305      6.923692
  Au      7.197144      5.477933      5.524932
  Au      9.204275      7.328814      6.471747
  Au      7.223834      6.043241      8.311923
  Au      5.931158      9.966252      4.570202
  Au      8.126532      8.802472      8.549739
  Au      5.957890     10.531200      7.357378
  Au      3.950910      8.680410      6.410494
  Au      5.255328      8.257564      8.864603
  Au      8.365612      9.965145      5.958608
  Fe      6.577708      8.004669      6.440848
13
Coordinates from ORCA-job pbe E -2893.372613397547
  Au      7.894256      7.615250      4.041135
  Au      5.001287      7.297262      4.329101
  Au      4.822004      5.965111      6.903045
  Au      7.240971      5.466071      5.515139
  Au      9.236933      7.379816      6.422514
  Au      7.176422      6.000510      8.343232
  Au      5.978205     10.008807      4.538608
  Au      8.153776      8.712001      8.553006
  Au      5.913782     10.542885      7.367475
  Au      3.918384      8.629856      6.460138
  Au      5.261031      8.393934      8.839887
  Au      8.333497     10.044161      5.979520
  Fe      6.577604      8.004653      6.440902
13
Coordinates from ORCA-job pbe E -2893.375625299723
  Au      7.883881      7.576573      4.037096
  Au      5.014759      7.329685      4.317061
  Au      4.848850      5.949751      6.871639
  Au      7.233444      5.451182      5.516526
  Au      9.258987      7.402863      6.384124
  Au      7.154254      6.024002      8.352712
  Au      6.000284      9.985047      4.528990
  Au      8.140428      8.679737      8.564707
  Au      5.921178     10.557958      7.365988
  Au      3.896286      8.607486      6.498302
  Au      5.271254      8.432252      8.844582
  Au      8.306951     10.059129      6.011085
  Fe      6.577595      8.004652      6.440888
13
Coordinates from ORCA-job pbe E -2893.381711017531
  Au      7.828335      7.552062      3.998768
  Au      5.063955      7.385841      4.288657
  Au      4.878304      5.931687      6.774522
  Au      7.193271      5.406564      5.556955
  Au      9.294148      7.470195      6.300753
  Au      7.107745      6.095879      8.390875
  Au      6.047291      9.913055      4.491152
  Au      8.091032      8.623765      8.593054
  Au      5.961412     10.602903      7.325042
  Au      3.861103      8.540964      6.580857
  Au      5.326934      8.455772      8.884059
  Au      8.277083     10.076997      6.108091
  Fe      6.577539      8.004633      6.440915
13
Coordinates from ORCA-job pbe E -2893.385988195264
  Au      7.782665      7.507991      3.971507
  Au      5.049780      7.418093      4.283725
  Au      4.836734      5.915943      6.717845
  Au      7.246450      5.384853      5.596036
  Au      9.306010      7.524031      6.262496
  Au      7.064908      6.088849      8.402305
  Au      6.090259      9.920323      4.479740
  Au      8.105162      8.591283      8.598162
  Au      5.908501     10.624879      7.285785
  Au      3.849335      8.486852      6.619117
  Au      5.372693      8.499312      8.911223
  Au      8.318182     10.093291      6.164787
  Fe      6.577473      8.004619      6.440973
13
Coordinates from ORCA-job pbe E -2893.392741480940
  Au      7.704625      7.477526      3.921560
  Au      4.991483      7.432933      4.282814
  Au      4.789972      5.905791      6.619320
  Au      7.347035      5.390214      5.694064
  Au      9.305474      7.575024      6.206921
  Au      6.962575      6.088719      8.389037
  Au      6.192700      9.920267      4.492709
  Au      8.163700      8.576290      8.599103
  Au      5.807464     10.618690      7.188961
  Au      3.850473      8.434931      6.675195
  Au      5.450453      8.530825      8.959994
  Au      8.364683     10.104503      6.263059
  Fe      6.577516      8.004605      6.440964
13
Coordinates from ORCA-job pbe E -2893.398418692697
  Au      7.632801      7.434551      3.893773
  Au      4.924976      7.473887      4.290404
  Au      4.779465      5.858536      6.517116
  Au      7.457183      5.411404      5.768901
  Au      9.303803      7.594729      6.131945
  Au      6.838093      6.110585      8.403804
  Au      6.317547      9.898709      4.478547
  Au      8.230072      8.534910      8.591533
  Au      5.697728     10.597471      7.113645
  Au      3.851880      8.415157      6.749994
  Au      5.522522      8.573902      8.988012
  Au      8.374545     10.151910      6.365073
  Fe      6.577537      8.004569      6.440954
13
Coordinates from ORCA-job pbe E -2893.401356403362
  Au      7.567484      7.386340      3.869499
  Au      4.851638      7.541556      4.300788
  Au      4.802627      5.798319      6.420800
  Au      7.549297      5.444211      5.843301
  Au      9.286037      7.619951      6.059851
  Au      6.704105      6.135892      8.433981
  Au      6.450903      9.872557      4.447478
  Au      8.304236      8.467920      8.580596
  Au      5.605186     10.564938      7.039750
  Au      3.869294      8.390178      6.822445
  Au      5.587196      8.622781      9.012104
  Au      8.352609     10.211149      6.462162
  Fe      6.577540      8.004527      6.440946
13
Coordinates from ORCA-job pbe E -2893.401487925392
  Au      7.527466      7.282110      3.860714
  Au      4.814982      7.642645      4.309450
  Au      4.844667      5.740592      6.344595
  Au      7.580478      5.423428      5.886652
  Au      9.298788      7.710004      5.985787
  Au      6.604874      6.132259      8.469264
  Au      6.550570      9.877559      4.413864
  Au      8.339277      8.365893      8.573502
  Au      5.575262     10.586495      6.994966
  Au      3.856296      8.298900      6.895567
  Au      5.628986      8.725789      9.021202
  Au      8.309051     10.270118      6.537129
  Fe      6.577454      8.004526      6.441010
13
Coordinates from ORCA-job pbe E -2893.402409817370
  Au      7.528168      7.319803      3.860615
  Au      4.816272      7.625578      4.308992
  Au      4.850409      5.756999      6.353275
  Au      7.561471      5.451683      5.888159
  Au      9.271907      7.698908      6.000495
  Au      6.609299      6.159845      8.463097
  Au      6.546063      9.849807      4.420025
  Au      8.338257      8.382955      8.573495
  Au      5.594138     10.558002      6.993306
  Au      3.882964      8.310400      6.881189
  Au      5.627761      8.688745      9.021513
  Au      8.303940     10.253064      6.528561
  Fe      6.577504      8.004530      6.440981
13
Coordinates from ORCA-job pbe E -2893.402466753851
  Au      7.534243      7.326617      3.856005
  Au      4.816813      7.622308      4.316831
  Au      4.846201      5.755711      6.353249
  Au      7.558226      5.456553      5.899978
  Au      9.268769      7.691871      6.004994
  Au      6.618129      6.144445      8.466596
  Au      6.536779      9.863542      4.414808
  Au      8.339333      8.387285      8.564422
  Au      5.596026     10.552522      6.982911
  Au      3.886270      8.318505      6.877655
  Au      5.619873      8.683480      9.025365
  Au      8.309987     10.252953      6.529895
  Fe      6.577504      8.004528      6.440993
13
Coordinates from ORCA-job pbe E -2893.402499750222
  Au      7.532072      7.321962      3.856199
  Au      4.819649      7.626936      4.316138
  Au      4.846877      5.754594      6.350566
  Au      7.558819      5.457624      5.900696
  Au      9.270606      7.696978      5.997307
  Au      6.612921      6.147607      8.468723
  Au      6.542340      9.861945      4.413957
  Au      8.335012      8.381851      8.566466
  Au      5.596742     10.551998      6.981046
  Au      3.884348      8.312063      6.884179
  Au      5.623645      8.686834      9.025849
  Au      8.307620     10.255394      6.531573
  Fe      6.577500      8.004533      6.441002
13
Coordinates from ORCA-job pbe E -2893.402510798915
  Au      7.531294      7.319963      3.855256
  Au      4.823306      7.631842      4.316837
  Au      4.848063      5.753208      6.351130
  Au      7.558585      5.460470      5.902931
  Au      9.272320      7.701596      5.992444
  Au      6.608399      6.147823      8.469038
  Au      6.546647      9.860571      4.412557
  Au      8.332637      8.377729      8.564442
  Au      5.595691     10.548482      6.979881
  Au      3.882857      8.308749      6.890270
  Au      5.622878      8.689998      9.026108
  Au      8.307972     10.255346      6.531795
  Fe      6.577504      8.004542      6.441012
13
Coordinates from ORCA-job pbe E -2893.402522458257
  Au      7.533694      7.318270      3.854129
  Au      4.825929      7.636448      4.321684
  Au      4.846140      5.753512      6.351554
  Au      7.560428      5.466385      5.906431
  Au      9.274576      7.704420      5.985768
  Au      6.603590      6.147732      8.471141
  Au      6.551847      9.862128      4.411656
  Au      8.328676      8.372439      8.560817
  Au      5.595160     10.543369      6.975064
  Au      3.880232      8.304509      6.895703
  Au      5.622095      8.690348      9.028401
  Au      8.308276     10.256196      6.530327
  Fe      6.577509      8.004561      6.441027
13
Coordinates from ORCA-job pbe E -2893.402532540645
  Au      7.535090      7.320156      3.852464
  Au      4.827617      7.639231      4.325806
  Au      4.844150      5.753680      6.352936
  Au      7.561605      5.469738      5.910395
  Au      9.277828      7.706523      5.982422
  Au      6.599932      6.146443      8.472660
  Au      6.555312      9.863109      4.409697
  Au      8.327274      8.369890      8.556632
  Au      5.593672     10.539613      6.971555
  Au      3.877316      8.302560      6.899328
  Au      5.620233      8.688872      9.029685
  Au      8.310608     10.255925      6.529081
  Fe      6.577516      8.004579      6.441041
13
Coordinates from ORCA-job pbe E -2893.402545826921
  Au      7.540278      7.325353      3.851723
  Au      4.829115      7.642855      4.332119
  Au      4.840634      5.754260      6.359258
  Au      7.562265      5.475597      5.914019
  Au      9.283061      7.709421      5.978955
  Au      6.594709      6.143771      8.475729
  Au      6.560349      9.865411      4.406215
  Au      8.326155      8.366668      8.549768
  Au      5.592828     10.533708      6.968118
  Au      3.871850      8.299998      6.903256
  Au      5.614718      8.683950      9.030561
  Au      8.314653     10.254710      6.522918
  Fe      6.577537      8.004618      6.441064
13
Coordinates from ORCA-job pbe E -2893.402553343002
  Au      7.544140      7.331694      3.851665
  Au      4.830151      7.643386      4.335296
  Au      4.837566      5.755214      6.365097
  Au      7.561116      5.478543      5.915426
  Au      9.286803      7.710535      5.977557
  Au      6.592315      6.141821      8.478956
  Au      6.562664      9.867296      4.402815
  Au      8.325088      8.366077      8.546874
  Au      5.593800     10.530339      6.967031
  Au      3.868618      8.298779      6.904802
  Au      5.610589      8.677876      9.030197
  Au      8.317755     10.254112      6.516901
  Fe      6.577548      8.004648      6.441082
13
Coordinates from ORCA-job pbe E -2893.402556319060
  Au      7.547131      7.335835      3.852392
  Au      4.830864      7.642429      4.335441
  Au      4.836139      5.755505      6.369829
  Au      7.559291      5.479701      5.914172
  Au      9.287597      7.710379      5.977994
  Au      6.592392      6.140450      8.481140
  Au      6.562608      9.868772      4.400808
  Au      8.324324      8.367157      8.546341
  Au      5.595854     10.529641      6.967910
  Au      3.867225      8.298942      6.904280
  Au      5.607961      8.673430      9.030069
  Au      8.319207     10.253417      6.512241
  Fe      6.577559      8.004660      6.441084
13
Coordinates from ORCA-job pbe E -2893.402556920490
  Au      7.547249      7.336288      3.852044
  Au      4.831003      7.641231      4.334739
  Au      4.836273      5.755754      6.370296
  Au      7.558319      5.478969      5.912984
  Au      9.287035      7.709757      5.978770
  Au      6.593218      6.140445      8.481452
  Au      6.561848      9.868892      4.400605
  Au      8.324028      8.368095      8.547543
  Au      5.596777     10.530026      6.969272
  Au      3.868363      8.299373      6.903423
  Au      5.607696      8.673088      9.029924
  Au      8.318790     10.253742      6.511569
  Fe      6.577554      8.004658      6.441081
