13
Coordinates from ORCA-job pbe E -2893.364700898432
  Au      7.868315      7.863913      4.017317
  Au      5.095557      7.131640      4.305362
  Au      4.739996      6.065193      6.953668
  Au      7.154547      5.491271      5.496242
  Au      9.214788      7.237931      6.498386
  Au      7.273859      6.117075      8.314530
  Au      5.880589      9.891963      4.567337
  Au      8.059421      8.877780      8.576359
  Au      5.999739     10.517154      7.386472
  Au      3.941019      8.771699      6.383990
  Au      5.286201      8.145758      8.864423
  Au      8.416307      9.944255      5.928835
  Fe      6.577815      8.004687      6.440781
13
Coordinates from ORCA-job pbe E -2893.367711540785
  Au      7.887618      7.844159      4.013921
  Au      5.062772      7.149659      4.337962
  Au      4.777052      6.100515      6.933424
  Au      7.161857      5.507452      5.534941
  Au      9.175075      7.287165      6.501985
  Au      7.251007      6.099216      8.277308
  Au      5.904207      9.910238      4.604965
  Au      8.092124      8.859461      8.544052
  Au      5.993276     10.501760      7.347184
  Au      3.979980      8.722057      6.379882
  Au      5.267234      8.165138      8.868563
  Au      8.378151      9.908815      5.948724
  Fe      6.577799      8.004685      6.440790
13
Coordinates from ORCA-job pbe E -2893.368683041222
  Au      7.898217      7.821339      4.006227
  Au      5.045725      7.161321      4.331795
  Au      4.775735      6.086368      6.932868
  Au      7.173576      5.489004      5.530892
  Au      9.185915      7.301654      6.495151
  Au      7.245729      6.074226      8.291639
  Au      5.909443      9.935307      4.590603
  Au      8.109115      8.847780      8.550355
  Au      5.981573     10.520195      7.351269
  Au      3.969221      8.707403      6.386860
  Au      5.256723      8.187887      8.875940
  Au      8.379407      9.923153      5.949297
  Fe      6.577773      8.004681      6.440807
13
Coordinates from ORCA-job pbe E -2893.370663458056
  Au      7.899786      7.751647      4.017097
  Au      5.028369      7.206667      4.332439
  Au      4.789609      6.044305      6.923692
  Au      7.197144      5.477933      5.524932
  Au      9.204275      7.328814      6.471747
  Au      7.223834      6.043241      8.311923
  Au      5.931158      9.966252      4.570202
  Au      8.126532      8.802472      8.549739
  Au      5.957890     10.531200      7.357378
  Au      3.950910      8.680410      6.410494
  Au      5.255328      8.257564      8.864603
  Au      8.365612      9.965145      5.958608
  Fe      6.577708      8.004669      6.440848
13
Coordinates from ORCA-job pbe E -2893.372613409637
  Au      7.894255      7.615250      4.041135
  Au      5.001287      7.297262      4.329100
  Au      4.822004      5.965111      6.903045
  Au      7.240971      5.466071      5.515139
  Au      9.236933      7.379816      6.422514
  Au      7.176422      6.000510      8.343232
  Au      5.978205     10.008807      4.538608
  Au      8.153776      8.712001      8.553006
  Au      5.913782     10.542885      7.367474
  Au      3.918384      8.629856      6.460138
  Au      5.261031      8.393934      8.839887
  Au      8.333497     10.044161      5.979520
  Fe      6.577604      8.004653      6.440902
13
Coordinates from ORCA-job pbe E -2893.375625330906
  Au      7.883880      7.576573      4.037096
  Au      5.014759      7.329686      4.317061
  Au      4.848850      5.949750      6.871639
  Au      7.233445      5.451182      5.516527
  Au      9.258987      7.402864      6.384124
  Au      7.154254      6.024001      8.352713
  Au      6.000284      9.985048      4.528990
  Au      8.140428      8.679736      8.564707
  Au      5.921178     10.557958      7.365988
  Au      3.896286      8.607485      6.498302
  Au      5.271254      8.432253      8.844582
  Au      8.306952     10.059130      6.011086
  Fe      6.577595      8.004652      6.440888
13
Coordinates from ORCA-job pbe E -2893.381711067261
  Au      7.828334      7.552061      3.998768
  Au      5.063955      7.385844      4.288657
  Au      4.878303      5.931686      6.774522
  Au      7.193271      5.406564      5.556957
  Au      9.294148      7.470196      6.300752
  Au      7.107745      6.095878      8.390876
  Au      6.047291      9.913056      4.491152
  Au      8.091032      8.623763      8.593055
  Au      5.961412     10.602903      7.325040
  Au      3.861104      8.540963      6.580857
  Au      5.326936      8.455774      8.884059
  Au      8.277083     10.076998      6.108092
  Fe      6.577539      8.004633      6.440915
13
Coordinates from ORCA-job pbe E -2893.385988232921
  Au      7.782664      7.507989      3.971507
  Au      5.049779      7.418096      4.283725
  Au      4.836733      5.915941      6.717844
  Au      7.246451      5.384852      5.596038
  Au      9.306010      7.524033      6.262496
  Au      7.064909      6.088847      8.402305
  Au      6.090258      9.920325      4.479741
  Au      8.105162      8.591280      8.598162
  Au      5.908500     10.624879      7.285783
  Au      3.849336      8.486850      6.619116
  Au      5.372694      8.499314      8.911222
  Au      8.318183     10.093293      6.164788
  Fe      6.577473      8.004619      6.440973
13
Coordinates from ORCA-job pbe E -2893.392741506810
  Au      7.704625      7.477523      3.921561
  Au      4.991482      7.432935      4.282814
  Au      4.789972      5.905790      6.619319
  Au      7.347036      5.390214      5.694066
  Au      9.305474      7.575025      6.206920
  Au      6.962576      6.088717      8.389037
  Au      6.192698      9.920269      4.492710
  Au      8.163701      8.576287      8.599103
  Au      5.807463     10.618690      7.188958
  Au      3.850472      8.434930      6.675194
  Au      5.450453      8.530828      8.959994
  Au      8.364684     10.104505      6.263060
  Fe      6.577516      8.004605      6.440964
13
Coordinates from ORCA-job pbe E -2893.398418714667
  Au      7.632800      7.434548      3.893774
  Au      4.924976      7.473888      4.290404
  Au      4.779465      5.858535      6.517115
  Au      7.457185      5.411403      5.768903
  Au      9.303803      7.594730      6.131944
  Au      6.838094      6.110584      8.403803
  Au      6.317546      9.898711      4.478549
  Au      8.230072      8.534908      8.591533
  Au      5.697726     10.597471      7.113643
  Au      3.851880      8.415157      6.749993
  Au      5.522523      8.573905      8.988011
  Au      8.374545     10.151912      6.365075
  Fe      6.577537      8.004569      6.440954
13
Coordinates from ORCA-job pbe E -2893.401356407468
  Au      7.567482      7.386337      3.869500
  Au      4.851637      7.541556      4.300788
  Au      4.802628      5.798319      6.420798
  Au      7.549299      5.444211      5.843302
  Au      9.286037      7.619951      6.059850
  Au      6.704106      6.135892      8.433981
  Au      6.450903      9.872557      4.447479
  Au      8.304237      8.467919      8.580597
  Au      5.605185     10.564939      7.039749
  Au      3.869294      8.390178      6.822444
  Au      5.587197      8.622783      9.012103
  Au      8.352608     10.211150      6.462165
  Fe      6.577540      8.004527      6.440946
13
Coordinates from ORCA-job pbe E -2893.401487921064
  Au      7.527464      7.282108      3.860714
  Au      4.814981      7.642646      4.309449
  Au      4.844669      5.740592      6.344593
  Au      7.580479      5.423427      5.886652
  Au      9.298788      7.710004      5.985789
  Au      6.604876      6.132259      8.469264
  Au      6.550569      9.877558      4.413865
  Au      8.339278      8.365893      8.573502
  Au      5.575261     10.586496      6.994966
  Au      3.856297      8.298902      6.895566
  Au      5.628988      8.725791      9.021200
  Au      8.309050     10.270118      6.537131
  Fe      6.577454      8.004526      6.441010
13
Coordinates from ORCA-job pbe E -2893.402409814697
  Au      7.528167      7.319802      3.860615
  Au      4.816272      7.625578      4.308991
  Au      4.850410      5.756999      6.353274
  Au      7.561472      5.451681      5.888159
  Au      9.271907      7.698906      6.000497
  Au      6.609301      6.159845      8.463096
  Au      6.546060      9.849807      4.420026
  Au      8.338258      8.382955      8.573496
  Au      5.594137     10.558004      6.993307
  Au      3.882964      8.310402      6.881187
  Au      5.627762      8.688746      9.021512
  Au      8.303939     10.253064      6.528562
  Fe      6.577504      8.004530      6.440981
13
Coordinates from ORCA-job pbe E -2893.402466749849
  Au      7.534241      7.326615      3.856006
  Au      4.816812      7.622307      4.316829
  Au      4.846202      5.755712      6.353247
  Au      7.558227      5.456552      5.899978
  Au      9.268768      7.691870      6.004994
  Au      6.618131      6.144446      8.466596
  Au      6.536778      9.863541      4.414809
  Au      8.339333      8.387285      8.564424
  Au      5.596025     10.552524      6.982911
  Au      3.886270      8.318505      6.877653
  Au      5.619874      8.683481      9.025364
  Au      8.309986     10.252953      6.529897
  Fe      6.577504      8.004527      6.440993
13
Coordinates from ORCA-job pbe E -2893.402499743830
  Au      7.532070      7.321960      3.856200
  Au      4.819649      7.626936      4.316137
  Au      4.846879      5.754595      6.350565
  Au      7.558819      5.457622      5.900696
  Au      9.270606      7.696977      5.997308
  Au      6.612923      6.147607      8.468722
  Au      6.542338      9.861944      4.413957
  Au      8.335013      8.381851      8.566467
  Au      5.596741     10.551999      6.981047
  Au      3.884348      8.312064      6.884178
  Au      5.623646      8.686835      9.025848
  Au      8.307619     10.255394      6.531575
  Fe      6.577500      8.004533      6.441002
13
Coordinates from ORCA-job pbe E -2893.402510793853
  Au      7.531293      7.319962      3.855257
  Au      4.823305      7.631842      4.316836
  Au      4.848064      5.753208      6.351128
  Au      7.558586      5.460470      5.902931
  Au      9.272320      7.701595      5.992445
  Au      6.608400      6.147823      8.469038
  Au      6.546645      9.860571      4.412557
  Au      8.332638      8.377729      8.564443
  Au      5.595690     10.548483      6.979881
  Au      3.882857      8.308750      6.890268
  Au      5.622879      8.689999      9.026107
  Au      8.307970     10.255345      6.531797
  Fe      6.577504      8.004542      6.441012
13
Coordinates from ORCA-job pbe E -2893.402522453381
  Au      7.533693      7.318268      3.854130
  Au      4.825929      7.636449      4.321684
  Au      4.846141      5.753512      6.351553
  Au      7.560429      5.466385      5.906432
  Au      9.274576      7.704421      5.985767
  Au      6.603590      6.147732      8.471141
  Au      6.551846      9.862128      4.411656
  Au      8.328676      8.372438      8.560817
  Au      5.595160     10.543369      6.975063
  Au      3.880232      8.304509      6.895704
  Au      5.622096      8.690349      9.028401
  Au      8.308275     10.256197      6.530328
  Fe      6.577509      8.004561      6.441027
13
Coordinates from ORCA-job pbe E -2893.402532536779
  Au      7.535089      7.320155      3.852464
  Au      4.827616      7.639232      4.325805
  Au      4.844152      5.753680      6.352934
  Au      7.561606      5.469737      5.910396
  Au      9.277828      7.706523      5.982421
  Au      6.599932      6.146443      8.472660
  Au      6.555312      9.863108      4.409697
  Au      8.327274      8.369889      8.556633
  Au      5.593671     10.539614      6.971554
  Au      3.877316      8.302559      6.899329
  Au      5.620234      8.688874      9.029684
  Au      8.310607     10.255925      6.529083
  Fe      6.577516      8.004579      6.441041
13
Coordinates from ORCA-job pbe E -2893.402545828702
  Au      7.540278      7.325353      3.851723
  Au      4.829115      7.642855      4.332119
  Au      4.840635      5.754260      6.359258
  Au      7.562266      5.475597      5.914020
  Au      9.283062      7.709421      5.978954
  Au      6.594708      6.143771      8.475729
  Au      6.560349      9.865411      4.406214
  Au      8.326156      8.366667      8.549768
  Au      5.592827     10.533707      6.968117
  Au      3.871850      8.299998      6.903257
  Au      5.614718      8.683951      9.030561
  Au      8.314653     10.254709      6.522918
  Fe      6.577537      8.004618      6.441064
13
Coordinates from ORCA-job pbe E -2893.402553342826
  Au      7.544140      7.331694      3.851665
  Au      4.830151      7.643386      4.335296
  Au      4.837567      5.755213      6.365097
  Au      7.561116      5.478542      5.915426
  Au      9.286803      7.710535      5.977558
  Au      6.592315      6.141821      8.478956
  Au      6.562664      9.867296      4.402815
  Au      8.325088      8.366077      8.546874
  Au      5.593799     10.530339      6.967031
  Au      3.868618      8.298779      6.904802
  Au      5.610589      8.677876      9.030197
  Au      8.317755     10.254111      6.516901
  Fe      6.577548      8.004648      6.441082
13
Coordinates from ORCA-job pbe E -2893.402556319107
  Au      7.547132      7.335835      3.852393
  Au      4.830864      7.642429      4.335441
  Au      4.836139      5.755505      6.369830
  Au      7.559291      5.479700      5.914172
  Au      9.287597      7.710379      5.977994
  Au      6.592392      6.140450      8.481140
  Au      6.562608      9.868772      4.400808
  Au      8.324324      8.367158      8.546341
  Au      5.595854     10.529641      6.967910
  Au      3.867225      8.298941      6.904281
  Au      5.607961      8.673430      9.030069
  Au      8.319207     10.253417      6.512241
  Fe      6.577559      8.004660      6.441084
13
Coordinates from ORCA-job pbe E -2893.402556922145
  Au      7.547249      7.336289      3.852044
  Au      4.831003      7.641231      4.334740
  Au      4.836273      5.755754      6.370296
  Au      7.558319      5.478969      5.912984
  Au      9.287035      7.709757      5.978770
  Au      6.593218      6.140445      8.481452
  Au      6.561848      9.868892      4.400605
  Au      8.324029      8.368095      8.547542
  Au      5.596777     10.530026      6.969272
  Au      3.868363      8.299372      6.903423
  Au      5.607696      8.673088      9.029924
  Au      8.318790     10.253743      6.511569
  Fe      6.577554      8.004658      6.441081
