11
E=  -1165.00862061;c=0;m=3
Au      8.981237756812520      6.148451481732580      7.549452681178340
Au      8.742166714780289      8.915427107134130      7.883447580387440
Au      5.190106648804910      9.124006815446370      5.920677876654520
Au      7.050534305077230      7.204252949121550      5.822097995136140
Au      6.195353579672470      5.589083277149200      8.069524848410630
Au      4.901786860610070      7.205739573709740     10.019453125187500
Au      4.200171827757070     11.491701684909181      7.037007868158120
Au      4.213802651102500      9.420565341417650      8.745368111766670
Au      6.766869038490540     10.718781441899290      7.841827668851260
Au      7.744918959407990      7.156739026069420      9.957383036831811
Fe      6.316655917484370      8.176094051410921      8.052659397437591
