11
Coordinates from ORCA-job pbe E -2621.718711603693
  Au      8.981238      6.148451      7.549453
  Au      8.742167      8.915427      7.883448
  Au      5.190107      9.124007      5.920678
  Au      7.050534      7.204253      5.822098
  Au      6.195354      5.589083      8.069525
  Au      4.901787      7.205740     10.019453
  Au      4.200172     11.491702      7.037008
  Au      4.213803      9.420565      8.745368
  Au      6.766869     10.718781      7.841828
  Au      7.744919      7.156739      9.957383
  Fe      6.316656      8.176094      8.052659
11
Coordinates from ORCA-job pbe E -2621.719935465340
  Au      8.956535      6.161023      7.559699
  Au      8.745025      8.920434      7.896949
  Au      5.186328      9.128302      5.912433
  Au      7.039559      7.195379      5.818614
  Au      6.215311      5.586359      8.060997
  Au      4.912650      7.159020     10.050337
  Au      4.220569     11.509803      7.005177
  Au      4.185568      9.438747      8.753296
  Au      6.768506     10.728683      7.839786
  Au      7.760440      7.149257      9.944241
  Fe      6.313114      8.173835      8.057371
11
Coordinates from ORCA-job pbe E -2621.720551982664
  Au      8.943419      6.164958      7.567249
  Au      8.752157      8.938026      7.920971
  Au      5.196972      9.143988      5.906420
  Au      7.015618      7.182303      5.804878
  Au      6.226202      5.580684      8.056046
  Au      4.910481      7.160181     10.051061
  Au      4.235097     11.489336      7.007268
  Au      4.173028      9.438889      8.765740
  Au      6.768592     10.733482      7.821124
  Au      7.771700      7.143013      9.939949
  Fe      6.310339      8.175982      8.058194
11
Coordinates from ORCA-job pbe E -2621.721385297875
  Au      8.919112      6.168379      7.577582
  Au      8.776826      8.966254      7.965348
  Au      5.231314      9.170020      5.877692
  Au      6.968530      7.143808      5.774112
  Au      6.241671      5.567511      8.063892
  Au      4.904876      7.164578     10.023025
  Au      4.214877     11.466361      7.017358
  Au      4.161836      9.439908      8.804759
  Au      6.786309     10.744535      7.797988
  Au      7.788419      7.138120      9.940389
  Fe      6.309835      8.181369      8.056755
11
Coordinates from ORCA-job pbe E -2621.721775609782
  Au      8.905451      6.186554      7.575663
  Au      8.790233      8.977584      7.986407
  Au      5.255245      9.182321      5.859263
  Au      6.945165      7.109643      5.758219
  Au      6.237251      5.561178      8.076928
  Au      4.909192      7.161777      9.994677
  Au      4.211312     11.440985      7.052790
  Au      4.166862      9.446702      8.812628
  Au      6.790533     10.746860      7.783541
  Au      7.783081      7.151953      9.949859
  Fe      6.309280      8.185286      8.048925
11
Coordinates from ORCA-job pbe E -2621.722223469817
  Au      8.893469      6.218968      7.562149
  Au      8.793062      8.989066      8.004561
  Au      5.271916      9.176991      5.844608
  Au      6.920767      7.078209      5.750476
  Au      6.231742      5.552087      8.088396
  Au      4.920740      7.146212      9.976959
  Au      4.219852     11.455390      7.058406
  Au      4.176862      9.437170      8.824808
  Au      6.794233     10.744505      7.784118
  Au      7.772464      7.167407      9.962274
  Fe      6.308498      8.184838      8.042144
11
Coordinates from ORCA-job pbe E -2621.722688879312
  Au      8.871127      6.256994      7.546674
  Au      8.796247      8.999998      8.026837
  Au      5.294386      9.184770      5.836241
  Au      6.886047      7.043249      5.743736
  Au      6.231273      5.541354      8.092483
  Au      4.923821      7.119382      9.970550
  Au      4.223958     11.450731      7.047743
  Au      4.202299      9.439704      8.835469
  Au      6.798107     10.740948      7.795201
  Au      7.764803      7.188981      9.971489
  Fe      6.311536      8.184732      8.032479
11
Coordinates from ORCA-job pbe E -2621.723164312314
  Au      8.850672      6.286366      7.534119
  Au      8.804580      9.016546      8.054968
  Au      5.320016      9.189469      5.826266
  Au      6.838997      7.008606      5.732526
  Au      6.239532      5.526491      8.092020
  Au      4.916150      7.095070      9.971518
  Au      4.226153     11.447180      7.034383
  Au      4.237278      9.444290      8.845906
  Au      6.792057     10.745233      7.809280
  Au      7.758745      7.207671      9.978125
  Fe      6.319424      8.183920      8.019789
11
Coordinates from ORCA-job pbe E -2621.723565069808
  Au      8.832815      6.310831      7.528757
  Au      8.809568      9.042084      8.085647
  Au      5.338229      9.200975      5.815245
  Au      6.793452      6.968937      5.719992
  Au      6.251392      5.512523      8.094180
  Au      4.911203      7.082265      9.970809
  Au      4.230311     11.441698      7.025679
  Au      4.269052      9.446715      8.854564
  Au      6.786808     10.749011      7.821732
  Au      7.751046      7.215218      9.976999
  Fe      6.329729      8.180584      8.005295
11
Coordinates from ORCA-job pbe E -2621.723991089755
  Au      8.820496      6.335438      7.523031
  Au      8.817599      9.067731      8.121752
  Au      5.353036      9.202462      5.806415
  Au      6.744882      6.938924      5.706590
  Au      6.260493      5.498948      8.098658
  Au      4.908813      7.078720      9.970559
  Au      4.233808     11.436498      7.016517
  Au      4.300023      9.451398      8.858463
  Au      6.775787     10.756997      7.832773
  Au      7.742469      7.209614      9.973616
  Fe      6.346198      8.174113      7.990526
11
Coordinates from ORCA-job pbe E -2621.724501687052
  Au      8.811427      6.362739      7.516165
  Au      8.823997      9.095394      8.163019
  Au      5.360121      9.206681      5.801534
  Au      6.701733      6.908402      5.695081
  Au      6.264022      5.484843      8.102828
  Au      4.911991      7.088787      9.969408
  Au      4.233928     11.434215      7.007924
  Au      4.321693      9.453390      8.857158
  Au      6.768472     10.762478      7.838312
  Au      7.737863      7.191189      9.970597
  Fe      6.368357      8.162724      7.976873
11
Coordinates from ORCA-job pbe E -2621.725149739702
  Au      8.801848      6.393053      7.507678
  Au      8.829138      9.120587      8.208787
  Au      5.355125      9.201851      5.806925
  Au      6.666659      6.891561      5.684716
  Au      6.258853      5.474099      8.106956
  Au      4.924576      7.110052      9.965458
  Au      4.232841     11.436556      6.996683
  Au      4.332895      9.455221      8.845251
  Au      6.761776     10.764787      7.837224
  Au      7.740687      7.157877      9.972169
  Fe      6.399205      8.145200      7.967055
11
Coordinates from ORCA-job pbe E -2621.725824527071
  Au      8.787052      6.429663      7.496088
  Au      8.832398      9.142267      8.255782
  Au      5.340747      9.193395      5.818962
  Au      6.639856      6.877561      5.674476
  Au      6.246668      5.465935      8.109108
  Au      4.943130      7.128394      9.956941
  Au      4.232980     11.445069      6.982389
  Au      4.337952      9.457607      8.827790
  Au      6.758781     10.761979      7.831328
  Au      7.752659      7.122719      9.983859
  Fe      6.431381      8.126253      7.962178
11
Coordinates from ORCA-job pbe E -2621.726437397092
  Au      8.764053      6.471922      7.481866
  Au      8.834912      9.161001      8.302837
  Au      5.320054      9.178576      5.835898
  Au      6.616885      6.866005      5.663025
  Au      6.235595      5.460707      8.109121
  Au      4.961015      7.141642      9.946892
  Au      4.236835     11.456688      6.965398
  Au      4.344552      9.459380      8.806210
  Au      6.758846     10.755387      7.825010
  Au      7.768990      7.090181     10.001510
  Fe      6.461868      8.109355      7.961134
11
Coordinates from ORCA-job pbe E -2621.726917813898
  Au      8.739539      6.517413      7.464238
  Au      8.839693      9.179354      8.353074
  Au      5.294706      9.162464      5.855105
  Au      6.591991      6.850845      5.648923
  Au      6.229582      5.454812      8.108128
  Au      4.974355      7.151438      9.938854
  Au      4.245459     11.469693      6.946872
  Au      4.353278      9.458370      8.782744
  Au      6.761727     10.749168      7.818423
  Au      7.784689      7.061092     10.020445
  Fe      6.488585      8.096194      7.962093
11
Coordinates from ORCA-job pbe E -2621.727140294959
  Au      8.708447      6.581660      7.435363
  Au      8.850525      9.223932      8.433264
  Au      5.297784      9.160362      5.854534
  Au      6.513871      6.793110      5.622376
  Au      6.237980      5.432487      8.126546
  Au      4.982950      7.153007      9.925703
  Au      4.260392     11.477046      6.933129
  Au      4.388741      9.454925      8.766416
  Au      6.757104     10.750150      7.830878
  Au      7.781094      7.046217     10.030972
  Fe      6.524716      8.077946      7.939719
11
Coordinates from ORCA-job pbe E -2621.727399093832
  Au      8.718615      6.575445      7.428832
  Au      8.843113      9.209164      8.419819
  Au      5.267682      9.145531      5.872684
  Au      6.535977      6.813674      5.627391
  Au      6.244396      5.442177      8.132585
  Au      4.978683      7.157229      9.929415
  Au      4.274960     11.491548      6.933918
  Au      4.370825      9.446407      8.742204
  Au      6.766162     10.742852      7.835974
  Au      7.785531      7.048076     10.029772
  Fe      6.517659      8.078739      7.946308
11
Coordinates from ORCA-job pbe E -2621.727594737713
  Au      8.724464      6.579112      7.415121
  Au      8.847897      9.195579      8.427558
  Au      5.247896      9.138163      5.880171
  Au      6.531591      6.810636      5.627626
  Au      6.265665      5.446594      8.147421
  Au      4.968860      7.154317      9.927675
  Au      4.291925     11.503855      6.938356
  Au      4.357503      9.435151      8.723581
  Au      6.776473     10.742986      7.844082
  Au      7.783000      7.062493     10.023146
  Fe      6.508330      8.081957      7.944162
11
Coordinates from ORCA-job pbe E -2621.727717243532
  Au      8.718774      6.599957      7.391979
  Au      8.856291      9.194834      8.460714
  Au      5.230113      9.127984      5.887127
  Au      6.502450      6.796860      5.626004
  Au      6.292420      5.444496      8.161282
  Au      4.961959      7.155149      9.922076
  Au      4.310940     11.512403      6.935699
  Au      4.351128      9.426954      8.701910
  Au      6.789038     10.740688      7.854904
  Au      7.781475      7.069737     10.020296
  Fe      6.509018      8.081782      7.936910
11
Coordinates from ORCA-job pbe E -2621.727771560729
  Au      8.715404      6.611731      7.379745
  Au      8.863675      9.196682      8.480926
  Au      5.229789      9.128984      5.881486
  Au      6.478809      6.783582      5.627779
  Au      6.308099      5.439236      8.166151
  Au      4.959768      7.151141      9.915633
  Au      4.322126     11.511494      6.934335
  Au      4.346833      9.425598      8.701805
  Au      6.793576     10.739853      7.858293
  Au      7.779358      7.077231     10.020455
  Fe      6.506167      8.085310      7.932292
11
Coordinates from ORCA-job pbe E -2621.727810202881
  Au      8.709171      6.629572      7.371603
  Au      8.867855      9.199745      8.501260
  Au      5.224924      9.127431      5.879958
  Au      6.457603      6.774188      5.633306
  Au      6.319311      5.433408      8.166468
  Au      4.963491      7.152732      9.908364
  Au      4.331344     11.513569      6.929904
  Au      4.342878      9.425947      8.697201
  Au      6.796569     10.734727      7.858559
  Au      7.781012      7.073276     10.022779
  Fe      6.509444      8.086247      7.929500
11
Coordinates from ORCA-job pbe E -2621.727837844342
  Au      8.711107      6.636627      7.369067
  Au      8.869110      9.201177      8.506990
  Au      5.226357      9.130226      5.873913
  Au      6.444750      6.768737      5.641675
  Au      6.327706      5.427699      8.166413
  Au      4.965419      7.151486      9.903694
  Au      4.335557     11.514819      6.928192
  Au      4.339626      9.428787      8.699048
  Au      6.796841     10.729867      7.859246
  Au      7.779446      7.070855     10.022459
  Fe      6.507686      8.090562      7.928201
11
Coordinates from ORCA-job pbe E -2621.727851862965
  Au      8.713792      6.641299      7.369214
  Au      8.867789      9.199969      8.508117
  Au      5.224643      9.131626      5.873447
  Au      6.440613      6.767963      5.648405
  Au      6.330903      5.424697      8.167568
  Au      4.966834      7.152316      9.899429
  Au      4.336979     11.518148      6.925783
  Au      4.338280      9.430668      8.698431
  Au      6.794663     10.727412      7.857925
  Au      7.780749      7.064192     10.021655
  Fe      6.508359      8.092552      7.928926
11
Coordinates from ORCA-job pbe E -2621.727858702133
  Au      8.715804      6.641981      7.368781
  Au      8.865633      9.200150      8.508166
  Au      5.225168      9.132364      5.873166
  Au      6.438563      6.766836      5.651653
  Au      6.333112      5.422895      8.170333
  Au      4.966041      7.151854      9.896405
  Au      4.335494     11.520332      6.924678
  Au      4.339547      9.432852      8.698468
  Au      6.793934     10.728117      7.857858
  Au      7.781307      7.059559     10.020155
  Fe      6.509001      8.093902      7.929236
11
Coordinates from ORCA-job pbe E -2621.727863597926
  Au      8.716705      6.642956      7.366415
  Au      8.862968      9.200285      8.509686
  Au      5.225399      9.132690      5.874141
  Au      6.436171      6.764914      5.654183
  Au      6.335654      5.421138      8.173576
  Au      4.964248      7.150908      9.892517
  Au      4.335457     11.521560      6.922815
  Au      4.341579      9.434841      8.698829
  Au      6.793035     10.730867      7.857950
  Au      7.782530      7.055836     10.019039
  Fe      6.509858      8.094847      7.929751
11
Coordinates from ORCA-job pbe E -2621.727866226902
  Au      8.715857      6.644252      7.363740
  Au      8.860816      9.200822      8.512187
  Au      5.226573      9.132231      5.874407
  Au      6.432982      6.761893      5.655575
  Au      6.338619      5.419460      8.175583
  Au      4.962504      7.149379      9.889051
  Au      4.335856     11.521907      6.921937
  Au      4.343300      9.436640      8.699751
  Au      6.793577     10.733952      7.858191
  Au      7.783280      7.054693     10.018490
  Fe      6.510239      8.095614      7.929988
11
Coordinates from ORCA-job pbe E -2621.727867290416
  Au      8.715054      6.645048      7.362254
  Au      8.860016      9.201135      8.513489
  Au      5.226167      9.131295      5.875638
  Au      6.432336      6.761070      5.655489
  Au      6.339119      5.418904      8.175252
  Au      4.962296      7.149173      9.888114
  Au      4.336598     11.521685      6.921196
  Au      4.343637      9.437163      8.699693
  Au      6.794162     10.735389      7.858087
  Au      7.783647      7.054544     10.019132
  Fe      6.510572      8.095436      7.930556
