15
E=  -1580.69017923;c=0;m=6
Au     10.063068598479971      8.182607087028050      9.499736528691660
Au      8.144297027108760      6.150027884323940     10.140898711069269
Au      4.710591702832200      9.122098334954440      8.745960047571449
Au      5.508629530076440      6.577991989306320      9.568580906192880
Au      7.295609795596450      8.857222689691151      9.988863155799621
Au      8.808950033829690      9.969788448071039      7.747151714512000
Au      6.499480398161730     11.231158115912219      8.609831230026749
Au      7.164971203186310      5.565157657924970      7.447485214720220
Au     10.015363345094380      5.533872871034630      8.145333907710130
Au      4.759854598778050      7.040054575336550      6.889099330773100
Au      9.258784563010940      5.999999121469890      5.438452635542020
Au      6.698560766281600      7.041981031355060      4.965651484063860
Au      6.281561880169940      9.482914234775810      6.358513148063480
Au      8.847198074933710      8.932705747251051      5.146980790416590
Mn      9.737519452459800      7.731324651564940      7.101945084846610
