16
E=  -1708.48129498;c=0;m=6
Au      5.202226303020080      5.685007854394530      8.850771885445759
Au      5.283348107831580      8.755492721039840      8.846122898597219
Au      7.082174690342960     10.946256265278841      8.022392075993521
Au      8.229201182815590     10.314759622257901      5.519255321625090
Au      5.522091411904140      9.721975087885021      6.066039568150980
Au      7.400650539897500      7.592803345803470      5.331758132557380
Au      4.864406643878190      7.090924124536220      6.489288132627540
Au      6.887511767396050      5.094241592793600      6.505251382097780
Au      6.764519857563960      6.907737272898550     10.807418133476389
Au      7.801076370221770      9.394832599167120     10.169700926006950
Au      8.000608189870491      4.873130115786960      9.109088305623411
Au      9.526988080872290      7.163990347830780      9.810499523553091
Au      9.512321550808320      6.205363007529700      7.068122811422980
Au      9.409260681625939      9.169052633324149      7.848610534313410
Au     10.136594186362499      8.245863325722180      5.292487763291450
Fe      7.315459475588640      7.257296013751110      8.164002555217090
