16
Coordinates from ORCA-job pbe E -3300.917745056862
  Au      5.202226      5.685008      8.850772
  Au      5.283348      8.755493      8.846123
  Au      7.082175     10.946256      8.022392
  Au      8.229201     10.314760      5.519255
  Au      5.522091      9.721975      6.066040
  Au      7.400651      7.592803      5.331758
  Au      4.864407      7.090924      6.489288
  Au      6.887512      5.094242      6.505251
  Au      6.764520      6.907737     10.807418
  Au      7.801076      9.394833     10.169701
  Au      8.000608      4.873130      9.109088
  Au      9.526988      7.163990      9.810500
  Au      9.512322      6.205363      7.068123
  Au      9.409261      9.169053      7.848611
  Au     10.136594      8.245863      5.292488
  Fe      7.315459      7.257296      8.164003
16
Coordinates from ORCA-job pbe E -3300.920501973982
  Au      5.214060      5.709298      8.837138
  Au      5.296369      8.751709      8.838109
  Au      7.083502     10.911460      8.025390
  Au      8.218095     10.285101      5.546606
  Au      5.537390      9.698209      6.086669
  Au      7.399848      7.591060      5.355168
  Au      4.884283      7.100768      6.499391
  Au      6.899080      5.126082      6.510547
  Au      6.767474      6.925252     10.782743
  Au      7.795744      9.385155     10.148053
  Au      8.005157      4.892664      9.093370
  Au      9.511174      7.174325      9.781766
  Au      9.502845      6.212686      7.071226
  Au      9.391627      9.154059      7.850582
  Au     10.113533      8.233078      5.318848
  Fe      7.318256      7.267818      8.155204
16
Coordinates from ORCA-job pbe E -3300.920864756566
  Au      5.211281      5.723486      8.832641
  Au      5.298841      8.757144      8.832639
  Au      7.081312     10.894576      8.033074
  Au      8.207387     10.279415      5.558393
  Au      5.538857      9.684523      6.099246
  Au      7.398194      7.591556      5.358100
  Au      4.888578      7.102719      6.504993
  Au      6.905094      5.131883      6.508334
  Au      6.762568      6.938301     10.775934
  Au      7.792136      9.381383     10.143407
  Au      8.002470      4.892527      9.095441
  Au      9.511766      7.176153      9.773631
  Au      9.513935      6.202290      7.069044
  Au      9.388923      9.153511      7.851589
  Au     10.117407      8.232410      5.315944
  Fe      7.319690      7.276849      8.148401
16
Coordinates from ORCA-job pbe E -3300.921182694166
  Au      5.210523      5.732689      8.833402
  Au      5.293550      8.765311      8.831581
  Au      7.080642     10.889480      8.038863
  Au      8.203136     10.270999      5.566640
  Au      5.536472      9.678569      6.103419
  Au      7.401207      7.592415      5.358478
  Au      4.887331      7.095936      6.509876
  Au      6.915654      5.136898      6.507268
  Au      6.756718      6.944497     10.770473
  Au      7.791504      9.375423     10.148559
  Au      8.000978      4.898175      9.092675
  Au      9.513106      7.174665      9.762570
  Au      9.523296      6.195324      7.066192
  Au      9.390062      9.152430      7.848640
  Au     10.112709      8.226286      5.323283
  Fe      7.321551      7.289627      8.138891
16
Coordinates from ORCA-job pbe E -3300.921585246427
  Au      5.209209      5.740430      8.838631
  Au      5.284746      8.775163      8.832274
  Au      7.079606     10.886174      8.048061
  Au      8.196826     10.269228      5.572316
  Au      5.530121      9.671757      6.106919
  Au      7.401595      7.592501      5.353213
  Au      4.885146      7.085389      6.512369
  Au      6.929346      5.139536      6.507306
  Au      6.747752      6.947708     10.766194
  Au      7.794440      9.369269     10.156855
  Au      7.993627      4.907887      9.091751
  Au      9.515648      7.169380      9.750593
  Au      9.535583      6.178655      7.067166
  Au      9.395297      9.155797      7.848083
  Au     10.114814      8.221605      5.324415
  Fe      7.324682      7.308249      8.124664
16
Coordinates from ORCA-job pbe E -3300.921934830591
  Au      5.206130      5.740634      8.842113
  Au      5.276494      8.780170      8.835686
  Au      7.079503     10.883639      8.052759
  Au      8.192864     10.267948      5.576092
  Au      5.527170      9.667766      6.108889
  Au      7.400494      7.594008      5.345448
  Au      4.883652      7.075575      6.508674
  Au      6.937884      5.136460      6.504496
  Au      6.743222      6.948217     10.767934
  Au      7.802152      9.366904     10.164098
  Au      7.981760      4.915373      9.096080
  Au      9.521628      7.164998      9.745812
  Au      9.545150      6.169640      7.065369
  Au      9.400884      9.162229      7.847953
  Au     10.111020      8.217195      5.330229
  Fe      7.328432      7.327972      8.109179
16
Coordinates from ORCA-job pbe E -3300.922252765146
  Au      5.207291      5.742429      8.841828
  Au      5.271618      8.777006      8.841645
  Au      7.077438     10.880277      8.058792
  Au      8.191229     10.271439      5.575148
  Au      5.522878      9.663275      6.112629
  Au      7.396700      7.592180      5.335798
  Au      4.885946      7.065061      6.504906
  Au      6.944481      5.136454      6.505159
  Au      6.742408      6.949723     10.765345
  Au      7.811690      9.362146     10.168963
  Au      7.967536      4.927146      9.100025
  Au      9.523063      7.161241      9.740537
  Au      9.545106      6.160599      7.070993
  Au      9.408311      9.169065      7.852018
  Au     10.110264      8.213255      5.333475
  Fe      7.332480      7.347431      8.093550
16
Coordinates from ORCA-job pbe E -3300.922554630487
  Au      5.207565      5.743133      8.839166
  Au      5.270297      8.767324      8.848958
  Au      7.075288     10.871739      8.061593
  Au      8.190264     10.271865      5.575695
  Au      5.523781      9.657607      6.119176
  Au      7.392140      7.591883      5.323907
  Au      4.889794      7.057895      6.496480
  Au      6.945999      5.132801      6.503911
  Au      6.743586      6.952268     10.764075
  Au      7.823869      9.361294     10.170689
  Au      7.953139      4.936750      9.105953
  Au      9.526434      7.159067      9.741331
  Au      9.539311      6.157199      7.077322
  Au      9.416151      9.178414      7.855762
  Au     10.103680      8.211828      5.339951
  Fe      7.337143      7.367659      8.076842
16
Coordinates from ORCA-job pbe E -3300.922789024658
  Au      5.208322      5.746961      8.834252
  Au      5.270134      8.753481      8.857995
  Au      7.071206     10.861436      8.064978
  Au      8.190361     10.270038      5.576939
  Au      5.524626      9.651578      6.128048
  Au      7.386876      7.588206      5.311444
  Au      4.892794      7.051962      6.487675
  Au      6.944630      5.132229      6.502855
  Au      6.745092      6.957646     10.760426
  Au      7.835482      9.361685     10.172354
  Au      7.943699      4.944858      9.109257
  Au      9.527436      7.160283      9.742465
  Au      9.532004      6.158298      7.081773
  Au      9.425554      9.186321      7.862027
  Au     10.098752      8.205970      5.347933
  Fe      7.341472      7.387774      8.060390
16
Coordinates from ORCA-job pbe E -3300.922950135592
  Au      5.209103      5.752833      8.830945
  Au      5.268664      8.740874      8.867214
  Au      7.067149     10.849622      8.068673
  Au      8.189913     10.263981      5.581280
  Au      5.526164      9.644384      6.137643
  Au      7.383747      7.584198      5.297014
  Au      4.892737      7.046862      6.478251
  Au      6.942521      5.131408      6.504310
  Au      6.744323      6.963304     10.755561
  Au      7.846106      9.364337     10.176043
  Au      7.938286      4.953342      9.109084
  Au      9.526511      7.160156      9.744213
  Au      9.526524      6.157051      7.086296
  Au      9.437390      9.194236      7.866666
  Au     10.093800      8.203719      5.353748
  Fe      7.345500      7.408419      8.043871
16
Coordinates from ORCA-job pbe E -3300.923065003910
  Au      5.209522      5.758858      8.826833
  Au      5.264461      8.731371      8.876555
  Au      7.063125     10.839248      8.074516
  Au      8.188854     10.255475      5.587746
  Au      5.525452      9.636859      6.146310
  Au      7.380708      7.576526      5.282830
  Au      4.889015      7.041436      6.468817
  Au      6.940043      5.133702      6.505360
  Au      6.744064      6.969565     10.750911
  Au      7.855606      9.368536     10.182805
  Au      7.935285      4.960667      9.107584
  Au      9.524270      7.162516      9.744326
  Au      9.526220      6.156637      7.086318
  Au      9.450671      9.199876      7.873342
  Au     10.092377      8.197975      5.358789
  Fe      7.348766      7.429479      8.027768
16
Coordinates from ORCA-job pbe E -3300.923138140507
  Au      5.209165      5.765675      8.822206
  Au      5.258901      8.724606      8.885127
  Au      7.060230     10.828547      8.080485
  Au      8.185977     10.244044      5.597573
  Au      5.525377      9.628536      6.154136
  Au      7.379124      7.567954      5.267463
  Au      4.882732      7.035436      6.457650
  Au      6.940069      5.135182      6.508270
  Au      6.743804      6.976770     10.746399
  Au      7.865769      9.374513     10.192054
  Au      7.932957      4.968067      9.105479
  Au      9.522131      7.161975      9.742728
  Au      9.525761      6.153819      7.088279
  Au      9.465546      9.205155      7.879284
  Au     10.089790      8.197824      5.361197
  Fe      7.351104      7.450623      8.012482
16
Coordinates from ORCA-job pbe E -3300.923155503546
  Au      5.210204      5.768325      8.820650
  Au      5.256596      8.724337      8.886992
  Au      7.059493     10.825885      8.083617
  Au      8.184493     10.240128      5.601320
  Au      5.524139      9.625555      6.156050
  Au      7.378642      7.564195      5.262927
  Au      4.879599      7.032923      6.453925
  Au      6.939173      5.135760      6.508477
  Au      6.744195      6.978804     10.743809
  Au      7.868986      9.376650     10.196302
  Au      7.931456      4.969586      9.105704
  Au      9.521578      7.162893      9.743067
  Au      9.527600      6.153865      7.086762
  Au      9.470422      9.206004      7.881781
  Au     10.090178      8.196845      5.361404
  Fe      7.351685      7.456971      8.008022
16
Coordinates from ORCA-job pbe E -3300.923171776871
  Au      5.211110      5.771662      8.817454
  Au      5.254238      8.725413      8.887877
  Au      7.058949     10.822935      8.087175
  Au      8.181942     10.234418      5.607081
  Au      5.522893      9.622112      6.157883
  Au      7.378578      7.558842      5.257943
  Au      4.874614      7.029779      6.447976
  Au      6.937922      5.135886      6.509569
  Au      6.745818      6.982007     10.740969
  Au      7.873538      9.380606     10.202479
  Au      7.932022      4.970615      9.104696
  Au      9.520511      7.163078      9.743964
  Au      9.527816      6.154604      7.086250
  Au      9.476289      9.206033      7.884800
  Au     10.090280      8.197738      5.360581
  Fe      7.351919      7.462999      8.004111
16
Coordinates from ORCA-job pbe E -3300.923180285864
  Au      5.212572      5.774260      8.815701
  Au      5.253990      8.727501      8.886422
  Au      7.059144     10.822112      8.089272
  Au      8.180179     10.231257      5.610477
  Au      5.521952      9.620403      6.158035
  Au      7.378707      7.555716      5.257061
  Au      4.871545      7.028281      6.443915
  Au      6.937024      5.135102      6.510249
  Au      6.747051      6.983544     10.738372
  Au      7.876241      9.383523     10.206021
  Au      7.933040      4.969928      9.104188
  Au      9.520238      7.162741      9.745167
  Au      9.527001      6.156902      7.085681
  Au      9.478106      9.204648      7.886477
  Au     10.090334      8.199387      5.359311
  Fe      7.351314      7.463421      8.004462
16
Coordinates from ORCA-job pbe E -3300.923186591946
  Au      5.213255      5.776711      8.813531
  Au      5.254926      8.729066      8.884355
  Au      7.059096     10.821784      8.090238
  Au      8.178660     10.229837      5.612519
  Au      5.521463      9.619768      6.158156
  Au      7.378831      7.553917      5.257783
  Au      4.869889      7.026701      6.440200
  Au      6.936349      5.133393      6.511056
  Au      6.748431      6.985630     10.736588
  Au      7.879091      9.385589     10.208453
  Au      7.934144      4.968770      9.103909
  Au      9.520297      7.161509      9.746770
  Au      9.525245      6.159614      7.085593
  Au      9.478186      9.203028      7.887400
  Au     10.090086      8.201627      5.357955
  Fe      7.350491      7.461782      8.006305
16
Coordinates from ORCA-job pbe E -3300.923190657849
  Au      5.213353      5.778699      8.812649
  Au      5.255967      8.729741      8.882869
  Au      7.059081     10.821343      8.091273
  Au      8.178022     10.229749      5.613009
  Au      5.520819      9.618982      6.158427
  Au      7.378810      7.553562      5.259156
  Au      4.869853      7.025329      6.437047
  Au      6.936596      5.131896      6.511335
  Au      6.748647      6.987114     10.735555
  Au      7.881974      9.386745     10.209373
  Au      7.934054      4.968375      9.104080
  Au      9.520838      7.160273      9.747513
  Au      9.523830      6.161510      7.085638
  Au      9.477243      9.201899      7.887660
  Au     10.089472      8.203186      5.357389
  Fe      7.349879      7.460323      8.007837
