13
E=  -1381.99400723;c=0;m=5
Au      7.559604368584300     10.241329436324900      7.572602802766040
Au      4.927997078742910     10.899237981611520      6.850014727633240
Au      5.447422175407830      8.807633206014250      8.758096452635460
Au      8.271189374193000      7.743324203260340      8.680761532487381
Au      8.575733023272900      8.360939503440131      5.741881559090550
Au      7.007858705088390     10.602059492340389      4.844171209548450
Au      4.603107526078640      6.145729073417160      8.140493409831929
Au      6.093766035140510      7.824458219119970      4.301176606364300
Au      7.596313706778870      5.717831973176640      5.254001361953170
Au      7.275466907496580      5.150025367183010      8.032264947623430
Au      4.007673870074830      8.122512174273799      6.313528141079730
Au      4.307130246424860      9.939022461783949      4.244845493434270
Fe      6.490944972716390      7.313302848053940      6.898550915551990
