13
Coordinates from ORCA-job pbe E -2893.384438821228
  Au      8.622363      7.501414      4.322055
  Au      5.893883      6.821940      3.802011
  Au      9.021428      9.631905      6.037953
  Au      8.759108     11.212344      8.247236
  Au      6.489821      9.517399      4.347510
  Au      4.749533      5.988099      6.278407
  Au      6.362568     10.584406      6.927958
  Au      7.428951      5.153755      5.593646
  Au      9.238588      6.909194      7.020754
  Au      4.900716      8.360652      7.783702
  Au      6.801580      6.175452      8.259863
  Au      7.768224      8.719266      8.749002
  Fe      6.803413      7.809267      6.197804
13
Coordinates from ORCA-job pbe E -2893.385137438882
  Au      8.635850      7.523828      4.344929
  Au      5.927682      6.842730      3.811063
  Au      9.002954      9.587557      6.034143
  Au      8.737700     11.136868      8.211836
  Au      6.477052      9.538775      4.346618
  Au      4.772742      6.003037      6.307154
  Au      6.369885     10.534776      6.914478
  Au      7.442734      5.200719      5.616788
  Au      9.198397      6.929163      7.008699
  Au      4.886770      8.380761      7.786874
  Au      6.821813      6.201675      8.268670
  Au      7.763229      8.684425      8.714971
  Fe      6.803367      7.820781      6.201677
13
Coordinates from ORCA-job pbe E -2893.386396767846
  Au      8.639740      7.516211      4.326242
  Au      5.939561      6.854035      3.810052
  Au      9.031485      9.590933      6.024365
  Au      8.747905     11.178570      8.230967
  Au      6.457919      9.538319      4.330048
  Au      4.776538      6.010273      6.321161
  Au      6.354147     10.535178      6.906724
  Au      7.442434      5.198659      5.617047
  Au      9.198214      6.908529      7.001262
  Au      4.862689      8.375959      7.782433
  Au      6.813859      6.184417      8.276523
  Au      7.774562      8.675519      8.741232
  Fe      6.801121      7.818491      6.199845
13
Coordinates from ORCA-job pbe E -2893.386645065770
  Au      8.655574      7.525473      4.305859
  Au      5.943249      6.869969      3.805881
  Au      9.048168      9.601913      6.034495
  Au      8.723548     11.164508      8.215445
  Au      6.439156      9.545884      4.318417
  Au      4.771328      6.022453      6.332962
  Au      6.359380     10.523446      6.903214
  Au      7.441341      5.175757      5.611037
  Au      9.217109      6.889914      7.002938
  Au      4.840559      8.379127      7.780648
  Au      6.809744      6.177060      8.301435
  Au      7.789002      8.686133      8.753638
  Fe      6.802017      7.823457      6.201931
13
Coordinates from ORCA-job pbe E -2893.387070040602
  Au      8.668510      7.543930      4.311607
  Au      5.951049      6.869453      3.810664
  Au      9.057454      9.582645      6.026878
  Au      8.719758     11.165241      8.214864
  Au      6.425071      9.552779      4.314002
  Au      4.779026      6.024707      6.334288
  Au      6.355014     10.514624      6.895126
  Au      7.434087      5.179874      5.612380
  Au      9.208277      6.884015      6.995872
  Au      4.827201      8.383914      7.778778
  Au      6.820678      6.191058      8.315038
  Au      7.792406      8.664751      8.755119
  Fe      6.801647      7.828102      6.203284
13
Coordinates from ORCA-job pbe E -2893.387241650954
  Au      8.670938      7.554760      4.311235
  Au      5.965162      6.870760      3.818361
  Au      9.071362      9.574178      6.038619
  Au      8.716201     11.159554      8.213807
  Au      6.404648      9.551202      4.306782
  Au      4.791925      6.030409      6.337374
  Au      6.354681     10.506379      6.884369
  Au      7.427538      5.195716      5.622693
  Au      9.192502      6.870281      6.981724
  Au      4.811122      8.379315      7.772447
  Au      6.826249      6.197326      8.318193
  Au      7.806506      8.661619      8.757466
  Fe      6.801342      7.833595      6.204828
13
Coordinates from ORCA-job pbe E -2893.387472798757
  Au      8.674423      7.571461      4.306020
  Au      5.972889      6.869074      3.817379
  Au      9.087814      9.562793      6.057025
  Au      8.703116     11.165444      8.214305
  Au      6.383728      9.553348      4.306152
  Au      4.794048      6.033786      6.335585
  Au      6.358832     10.500749      6.869074
  Au      7.414484      5.188892      5.628698
  Au      9.191166      6.856960      6.971849
  Au      4.801106      8.377608      7.769067
  Au      6.833375      6.203768      8.324600
  Au      7.822184      8.660864      8.760618
  Fe      6.803010      7.840346      6.207526
13
Coordinates from ORCA-job pbe E -2893.388089314095
  Au      8.676317      7.633156      4.287288
  Au      6.002612      6.852068      3.806385
  Au      9.131064      9.530813      6.125733
  Au      8.683767     11.182151      8.223797
  Au      6.305193      9.552451      4.308128
  Au      4.795708      6.039592      6.317557
  Au      6.382970     10.500894      6.819050
  Au      7.366246      5.156950      5.663142
  Au      9.194132      6.817888      6.939371
  Au      4.773944      8.362714      7.756661
  Au      6.860948      6.224259      8.334756
  Au      7.858598      8.668829      8.769742
  Fe      6.808677      7.863331      6.216291
13
Coordinates from ORCA-job pbe E -2893.388467500984
  Au      8.668642      7.666629      4.276822
  Au      6.024720      6.838167      3.798448
  Au      9.153758      9.513051      6.165530
  Au      8.656824     11.203403      8.242581
  Au      6.258584      9.538298      4.300821
  Au      4.785292      6.046134      6.303951
  Au      6.409732     10.511961      6.805084
  Au      7.339412      5.127588      5.688441
  Au      9.203306      6.793223      6.908780
  Au      4.777292      8.364173      7.753455
  Au      6.874861      6.230186      8.333376
  Au      7.872096      8.676218      8.770577
  Fe      6.815656      7.876063      6.220033
13
Coordinates from ORCA-job pbe E -2893.389038588607
  Au      8.643914      7.720656      4.264076
  Au      6.068740      6.796914      3.792301
  Au      9.185444      9.508731      6.229589
  Au      8.645828     11.226311      8.280776
  Au      6.183760      9.511273      4.294188
  Au      4.759943      6.069566      6.280452
  Au      6.443321     10.523687      6.771196
  Au      7.309369      5.082353      5.730301
  Au      9.216685      6.762509      6.854470
  Au      4.798306      8.369848      7.752504
  Au      6.895708      6.239364      8.324294
  Au      7.863810      8.679281      8.769428
  Fe      6.825348      7.894600      6.224324
13
Coordinates from ORCA-job pbe E -2893.389864353546
  Au      8.619541      7.790905      4.261866
  Au      6.118828      6.738888      3.796417
  Au      9.216105      9.491059      6.282190
  Au      8.627653     11.239623      8.331189
  Au      6.104335      9.469003      4.284765
  Au      4.736357      6.115215      6.253789
  Au      6.480449     10.543499      6.732477
  Au      7.281133      5.036820      5.777212
  Au      9.229329      6.734418      6.776981
  Au      4.844533      8.387252      7.765360
  Au      6.916933      6.230207      8.303100
  Au      7.826085      8.697060      8.776749
  Fe      6.838895      7.911143      6.225808
13
Coordinates from ORCA-job pbe E -2893.391007169744
  Au      8.603949      7.856939      4.253381
  Au      6.165832      6.682366      3.815381
  Au      9.249354      9.481849      6.328925
  Au      8.594397     11.242229      8.359473
  Au      6.044653      9.425462      4.279939
  Au      4.722638      6.183488      6.235094
  Au      6.511775     10.566691      6.687505
  Au      7.255725      5.000114      5.810010
  Au      9.235173      6.706436      6.699621
  Au      4.908294      8.410545      7.804145
  Au      6.945200      6.212595      8.282696
  Au      7.747582      8.696868      8.785188
  Fe      6.855604      7.919512      6.226543
13
Coordinates from ORCA-job pbe E -2893.392203249899
  Au      8.600875      7.910488      4.235287
  Au      6.204239      6.644231      3.835372
  Au      9.272235      9.458306      6.360564
  Au      8.556321     11.224050      8.367982
  Au      6.018186      9.395919      4.277995
  Au      4.721251      6.262573      6.234476
  Au      6.519583     10.578818      6.624567
  Au      7.240064      4.977316      5.816536
  Au      9.232881      6.691276      6.640485
  Au      4.977058      8.435087      7.873179
  Au      6.976630      6.181355      8.268571
  Au      7.648825      8.707750      8.807298
  Fe      6.872027      7.917923      6.225587
13
Coordinates from ORCA-job pbe E -2893.393092253689
  Au      8.610353      7.983834      4.205788
  Au      6.254113      6.628797      3.832080
  Au      9.300564      9.416794      6.419783
  Au      8.518136     11.212435      8.359351
  Au      5.962378      9.377924      4.267736
  Au      4.732047      6.319354      6.238113
  Au      6.537710     10.584088      6.557572
  Au      7.202286      4.950689      5.834282
  Au      9.214737      6.653765      6.586307
  Au      4.972950      8.431692      7.913120
  Au      7.027510      6.182746      8.280798
  Au      7.622488      8.715761      8.845282
  Fe      6.884904      7.927215      6.227690
13
Coordinates from ORCA-job pbe E -2893.393559490733
  Au      8.621127      8.006665      4.198574
  Au      6.260028      6.637001      3.818151
  Au      9.277922      9.409223      6.430676
  Au      8.535599     11.193483      8.347985
  Au      5.970266      9.359474      4.246881
  Au      4.737460      6.336265      6.229911
  Au      6.535737     10.609120      6.534876
  Au      7.180955      4.913315      5.821228
  Au      9.217731      6.654296      6.567818
  Au      4.974428      8.421772      7.958552
  Au      7.060567      6.187208      8.299470
  Au      7.579403      8.738782      8.886590
  Fe      6.888954      7.918490      6.227190
13
Coordinates from ORCA-job pbe E -2893.393976755130
  Au      8.615188      8.036976      4.191313
  Au      6.275417      6.637997      3.805220
  Au      9.281765      9.388817      6.480106
  Au      8.502390     11.227723      8.350218
  Au      5.954719      9.353557      4.246922
  Au      4.732924      6.341055      6.205006
  Au      6.556712     10.594875      6.512184
  Au      7.134244      4.892379      5.850315
  Au      9.215589      6.622060      6.527010
  Au      4.970088      8.404976      7.961119
  Au      7.093879      6.201106      8.299472
  Au      7.609501      8.757347      8.908208
  Fe      6.897758      7.926223      6.230809
13
Coordinates from ORCA-job pbe E -2893.394400031919
  Au      8.614127      8.045022      4.187506
  Au      6.276558      6.631537      3.802916
  Au      9.268999      9.373697      6.503798
  Au      8.473908     11.251345      8.353327
  Au      5.970150      9.351592      4.237111
  Au      4.722923      6.365975      6.192150
  Au      6.566043     10.589594      6.503503
  Au      7.117300      4.889604      5.863239
  Au      9.212403      6.595534      6.487359
  Au      4.992894      8.384899      7.980922
  Au      7.121246      6.209737      8.299730
  Au      7.598697      8.772962      8.924128
  Fe      6.904927      7.923595      6.232211
13
Coordinates from ORCA-job pbe E -2893.394990802456
  Au      8.621122      8.017029      4.182489
  Au      6.253207      6.639158      3.800949
  Au      9.204208      9.347162      6.518137
  Au      8.458761     11.288558      8.348747
  Au      6.062500      9.372877      4.199908
  Au      4.702563      6.386758      6.163374
  Au      6.545945     10.572732      6.511568
  Au      7.091162      4.923322      5.870166
  Au      9.215466      6.559785      6.428165
  Au      5.012286      8.311735      8.019985
  Au      7.174448      6.248390      8.319979
  Au      7.592249      8.813006      8.970266
  Fe      6.906258      7.904581      6.234167
13
Coordinates from ORCA-job pbe E -2893.395086559092
  Au      8.606664      8.068902      4.164487
  Au      6.292371      6.596710      3.796983
  Au      9.192998      9.316991      6.583528
  Au      8.450613     11.302719      8.376597
  Au      6.052897      9.350849      4.169715
  Au      4.663340      6.433667      6.109527
  Au      6.561059     10.581508      6.479268
  Au      7.027512      4.909507      5.925702
  Au      9.231982      6.523609      6.336931
  Au      5.056696      8.268137      8.064638
  Au      7.246094      6.273234      8.321465
  Au      7.542161      8.853497      9.002508
  Fe      6.915790      7.905763      6.236550
13
Coordinates from ORCA-job pbe E -2893.395625157464
  Au      8.618166      8.050145      4.165977
  Au      6.283149      6.623860      3.793762
  Au      9.201113      9.317652      6.559470
  Au      8.463613     11.295914      8.341503
  Au      6.070024      9.369210      4.170461
  Au      4.653621      6.420766      6.116317
  Au      6.538412     10.573373      6.500603
  Au      7.045792      4.930270      5.916135
  Au      9.235457      6.534383      6.370089
  Au      5.030690      8.257366      8.060615
  Au      7.240534      6.266371      8.331986
  Au      7.554717      8.847822      9.003856
  Fe      6.904887      7.897962      6.237126
13
Coordinates from ORCA-job pbe E -2893.396017958762
  Au      8.628278      8.036982      4.162328
  Au      6.277044      6.644063      3.792952
  Au      9.204617      9.304198      6.548428
  Au      8.469804     11.289670      8.306850
  Au      6.101903      9.389233      4.164779
  Au      4.627297      6.428526      6.094927
  Au      6.514428     10.552223      6.511493
  Au      7.037505      4.965753      5.921166
  Au      9.251397      6.538071      6.376325
  Au      5.025122      8.215462      8.080762
  Au      7.267311      6.272681      8.351747
  Au      7.542792      8.864306      9.017606
  Fe      6.892677      7.883925      6.238538
13
Coordinates from ORCA-job pbe E -2893.396437791124
  Au      8.637591      8.033674      4.158169
  Au      6.275798      6.652585      3.781730
  Au      9.210659      9.285813      6.547347
  Au      8.493457     11.285943      8.279352
  Au      6.128505      9.404374      4.150219
  Au      4.565747      6.451502      6.037148
  Au      6.496702     10.523760      6.533425
  Au      7.013662      5.017375      5.955606
  Au      9.277199      6.533126      6.366200
  Au      5.020535      8.127973      8.101466
  Au      7.330480      6.302046      8.384957
  Au      7.518487      8.902117      9.031663
  Fe      6.871353      7.864806      6.240618
13
Coordinates from ORCA-job pbe E -2893.396749619774
  Au      8.636805      8.041937      4.159682
  Au      6.284596      6.654200      3.770577
  Au      9.219711      9.268867      6.559386
  Au      8.507171     11.292714      8.256433
  Au      6.129706      9.403933      4.155258
  Au      4.529438      6.482216      5.985094
  Au      6.501217     10.500595      6.534814
  Au      6.986499      5.047657      5.976586
  Au      9.287374      6.526850      6.355434
  Au      5.030844      8.064513      8.125061
  Au      7.385666      6.316081      8.407750
  Au      7.482931      8.934967      9.038321
  Fe      6.858216      7.850563      6.243506
13
Coordinates from ORCA-job pbe E -2893.397198619989
  Au      8.629708      8.058807      4.167935
  Au      6.301465      6.638105      3.747582
  Au      9.237999      9.258717      6.575359
  Au      8.533611     11.299400      8.263508
  Au      6.084795      9.382427      4.173115
  Au      4.504448      6.519179      5.930510
  Au      6.535075     10.488463      6.532479
  Au      6.955646      5.069924      6.000722
  Au      9.288722      6.523356      6.350183
  Au      5.039646      8.000827      8.129430
  Au      7.443507      6.336338      8.431617
  Au      7.441492      8.968266      9.021278
  Fe      6.844064      7.841285      6.244182
13
Coordinates from ORCA-job pbe E -2893.397671396628
  Au      8.614615      8.088545      4.184588
  Au      6.330022      6.610252      3.709621
  Au      9.245592      9.247053      6.610028
  Au      8.568069     11.318605      8.276962
  Au      6.018961      9.340356      4.202534
  Au      4.486043      6.564739      5.864134
  Au      6.595281     10.497333      6.516925
  Au      6.921661      5.084937      6.029442
  Au      9.274126      6.509307      6.330840
  Au      5.050838      7.923634      8.142002
  Au      7.507648      6.359579      8.453410
  Au      7.394236      9.008531      9.001853
  Fe      6.833082      7.832221      6.245562
13
Coordinates from ORCA-job pbe E -2893.398060627581
  Au      8.597745      8.116870      4.199206
  Au      6.360619      6.585811      3.676290
  Au      9.256852      9.234134      6.638519
  Au      8.593161     11.324525      8.300759
  Au      5.939761      9.293925      4.241883
  Au      4.492153      6.600866      5.825874
  Au      6.661109     10.523807      6.480263
  Au      6.898055      5.094856      6.046887
  Au      9.258910      6.506652      6.319847
  Au      5.051919      7.865227      8.148922
  Au      7.539019      6.378041      8.470775
  Au      7.362724      9.030353      8.974139
  Fe      6.828150      7.830027      6.244537
13
Coordinates from ORCA-job pbe E -2893.398395173686
  Au      8.587412      8.136153      4.211321
  Au      6.378165      6.577944      3.649086
  Au      9.260504      9.216397      6.661238
  Au      8.612964     11.326525      8.303287
  Au      5.895554      9.260754      4.272275
  Au      4.487048      6.634951      5.788123
  Au      6.709825     10.553499      6.439762
  Au      6.883190      5.121133      6.063591
  Au      9.252309      6.499688      6.311982
  Au      5.051764      7.786480      8.175910
  Au      7.566998      6.395433      8.485786
  Au      7.331123      9.054434      8.959216
  Fe      6.823319      7.821703      6.246323
13
Coordinates from ORCA-job pbe E -2893.398696949253
  Au      8.583617      8.143532      4.218468
  Au      6.378003      6.586110      3.650970
  Au      9.269739      9.219096      6.661128
  Au      8.606238     11.318898      8.301808
  Au      5.864906      9.248035      4.298062
  Au      4.507839      6.632617      5.812049
  Au      6.741474     10.599920      6.389846
  Au      6.903689      5.114146      6.051837
  Au      9.254970      6.505456      6.326374
  Au      5.039376      7.778640      8.189685
  Au      7.520615      6.377371      8.478592
  Au      7.333408      9.031156      8.941277
  Fe      6.836300      7.830117      6.247804
13
Coordinates from ORCA-job pbe E -2893.398942977958
  Au      8.584507      8.145029      4.223074
  Au      6.373857      6.595647      3.655361
  Au      9.276697      9.210329      6.665808
  Au      8.605621     11.320477      8.288250
  Au      5.861856      9.255016      4.299266
  Au      4.488534      6.642855      5.797251
  Au      6.757256     10.609961      6.369188
  Au      6.894897      5.128070      6.059369
  Au      9.273898      6.503183      6.330532
  Au      5.030555      7.723167      8.205808
  Au      7.529915      6.379835      8.481739
  Au      7.324724      9.042886      8.937620
  Fe      6.837860      7.828637      6.254635
13
Coordinates from ORCA-job pbe E -2893.399137479978
  Au      8.583162      8.135784      4.227428
  Au      6.358557      6.599637      3.666516
  Au      9.290643      9.222890      6.652764
  Au      8.607329     11.315646      8.292002
  Au      5.854496      9.261378      4.299765
  Au      4.481083      6.637261      5.797570
  Au      6.772854     10.618878      6.360267
  Au      6.904679      5.135043      6.053079
  Au      9.284140      6.512602      6.355603
  Au      5.023881      7.708130      8.209670
  Au      7.521363      6.366118      8.477575
  Au      7.316935      9.038169      8.916284
  Fe      6.841054      7.833557      6.259378
13
Coordinates from ORCA-job pbe E -2893.399371991824
  Au      8.572875      8.126143      4.236299
  Au      6.342921      6.603165      3.674838
  Au      9.313501      9.243311      6.645099
  Au      8.606247     11.314561      8.307010
  Au      5.835214      9.266374      4.297654
  Au      4.472074      6.647144      5.793924
  Au      6.815217     10.628135      6.329540
  Au      6.902740      5.141550      6.049871
  Au      9.296355      6.519935      6.376248
  Au      5.018761      7.659827      8.223242
  Au      7.525432      6.352411      8.484054
  Au      7.290183      9.037021      8.878591
  Fe      6.848654      7.845518      6.271530
13
Coordinates from ORCA-job pbe E -2893.399469597710
  Au      8.569448      8.100484      4.238159
  Au      6.321085      6.610043      3.671418
  Au      9.321338      9.258289      6.622171
  Au      8.614309     11.301759      8.316874
  Au      5.851163      9.280063      4.289144
  Au      4.471626      6.643474      5.801695
  Au      6.815990     10.626784      6.326018
  Au      6.911278      5.159129      6.042417
  Au      9.299925      6.538560      6.404350
  Au      5.017684      7.638854      8.232015
  Au      7.526433      6.343673      8.490592
  Au      7.271728      9.034159      8.854774
  Fe      6.848169      7.849823      6.278271
13
Coordinates from ORCA-job pbe E -2893.399578815723
  Au      8.563466      8.105863      4.238206
  Au      6.323274      6.604274      3.658397
  Au      9.324897      9.257389      6.625317
  Au      8.616801     11.296595      8.322196
  Au      5.847619      9.274313      4.282309
  Au      4.477924      6.656198      5.797194
  Au      6.826549     10.630722      6.316950
  Au      6.901911      5.162947      6.050635
  Au      9.292841      6.537698      6.397684
  Au      5.019617      7.618964      8.242832
  Au      7.543001      6.344416      8.501147
  Au      7.253170      9.038524      8.849650
  Fe      6.849106      7.857190      6.285385
13
Coordinates from ORCA-job pbe E -2893.399724969099
  Au      8.554628      8.104415      4.232928
  Au      6.318895      6.596975      3.641536
  Au      9.315229      9.257325      6.620704
  Au      8.614140     11.289799      8.326594
  Au      5.877975      9.273751      4.263799
  Au      4.494436      6.662779      5.798265
  Au      6.815490     10.634443      6.319802
  Au      6.891788      5.169236      6.058367
  Au      9.283240      6.531289      6.382859
  Au      5.022233      7.607405      8.254691
  Au      7.556071      6.349247      8.514582
  Au      7.245273      9.038800      8.856801
  Fe      6.850777      7.869629      6.296973
13
Coordinates from ORCA-job pbe E -2893.399817467718
  Au      8.545489      8.104513      4.235311
  Au      6.316963      6.587687      3.627643
  Au      9.314477      9.255468      6.613098
  Au      8.618425     11.282497      8.328194
  Au      5.888719      9.267112      4.262689
  Au      4.499555      6.669516      5.790122
  Au      6.816939     10.647084      6.316603
  Au      6.888084      5.180027      6.066262
  Au      9.280227      6.534107      6.381990
  Au      5.021196      7.586200      8.262917
  Au      7.562127      6.349027      8.521254
  Au      7.238223      9.038760      8.852445
  Fe      6.849751      7.883096      6.309372
13
Coordinates from ORCA-job pbe E -2893.399897979204
  Au      8.540039      8.102456      4.232010
  Au      6.316799      6.580602      3.624967
  Au      9.315470      9.255743      6.603153
  Au      8.615751     11.277343      8.324642
  Au      5.902674      9.262412      4.261783
  Au      4.504812      6.671245      5.789738
  Au      6.805550     10.654004      6.320654
  Au      6.890027      5.184352      6.065617
  Au      9.280151      6.533909      6.383003
  Au      5.013904      7.589543      8.261423
  Au      7.560903      6.343173      8.520384
  Au      7.244562      9.032267      8.859488
  Fe      6.849535      7.898045      6.321038
13
Coordinates from ORCA-job pbe E -2893.399975176961
  Au      8.539057      8.095889      4.237010
  Au      6.314430      6.572949      3.622126
  Au      9.322804      9.259524      6.592766
  Au      8.613326     11.273258      8.320711
  Au      5.897276      9.252597      4.273541
  Au      4.502249      6.682738      5.778121
  Au      6.813214     10.663038      6.310829
  Au      6.891971      5.200022      6.062343
  Au      9.286641      6.536643      6.389679
  Au      5.010871      7.572001      8.266324
  Au      7.558269      6.336937      8.520858
  Au      7.242391      9.027065      8.858099
  Fe      6.847676      7.912431      6.335493
13
Coordinates from ORCA-job pbe E -2893.400043601242
  Au      8.540207      8.086250      4.234602
  Au      6.319421      6.567807      3.619205
  Au      9.325369      9.260203      6.589526
  Au      8.608658     11.271758      8.317425
  Au      5.889798      9.241154      4.281131
  Au      4.501408      6.696334      5.774191
  Au      6.811868     10.661703      6.307489
  Au      6.892893      5.208535      6.055236
  Au      9.290834      6.538493      6.391813
  Au      5.009248      7.573104      8.263712
  Au      7.558676      6.333899      8.516430
  Au      7.245917      9.024450      8.872456
  Fe      6.845879      7.921403      6.344684
13
Coordinates from ORCA-job pbe E -2893.400111525069
  Au      8.539789      8.066991      4.234901
  Au      6.313730      6.561328      3.607084
  Au      9.324570      9.269090      6.580246
  Au      8.602889     11.265739      8.319618
  Au      5.886738      9.229803      4.283000
  Au      4.505604      6.715756      5.771947
  Au      6.814369     10.661249      6.298210
  Au      6.894291      5.222903      6.044115
  Au      9.297329      6.542393      6.401612
  Au      5.011696      7.566950      8.269084
  Au      7.560799      6.329348      8.514327
  Au      7.242159      9.019337      8.884343
  Fe      6.846212      7.934208      6.359415
13
Coordinates from ORCA-job pbe E -2893.400180632193
  Au      8.535123      8.043726      4.236603
  Au      6.307114      6.553923      3.583527
  Au      9.320156      9.274605      6.573426
  Au      8.598220     11.260351      8.321306
  Au      5.879905      9.214644      4.285171
  Au      4.512875      6.741747      5.767427
  Au      6.817534     10.663344      6.288165
  Au      6.896743      5.240645      6.033427
  Au      9.307322      6.546997      6.413301
  Au      5.015266      7.558319      8.276030
  Au      7.564141      6.326104      8.513895
  Au      7.238409      9.015801      8.900822
  Fe      6.847366      7.944888      6.374800
13
Coordinates from ORCA-job pbe E -2893.400271024909
  Au      8.521291      8.005080      4.242604
  Au      6.286843      6.542850      3.547899
  Au      9.313411      9.286221      6.557691
  Au      8.588975     11.252401      8.324431
  Au      5.879752      9.199442      4.284434
  Au      4.528158      6.771150      5.764444
  Au      6.816850     10.669675      6.277187
  Au      6.907656      5.266039      6.012956
  Au      9.326049      6.554894      6.438773
  Au      5.016149      7.554206      8.285351
  Au      7.561080      6.316414      8.514255
  Au      7.240796      9.004379      8.919503
  Fe      6.853166      7.962343      6.398372
13
Coordinates from ORCA-job pbe E -2893.400375320238
  Au      8.497858      7.956388      4.255498
  Au      6.257308      6.531523      3.500781
  Au      9.305550      9.295717      6.541322
  Au      8.578030     11.247631      8.321924
  Au      5.879543      9.181971      4.284676
  Au      4.548023      6.802853      5.758612
  Au      6.809816     10.678896      6.267862
  Au      6.928271      5.298122      5.984454
  Au      9.353921      6.564636      6.475512
  Au      5.013738      7.556650      8.293653
  Au      7.550902      6.300802      8.513758
  Au      7.253668      8.989794      8.944496
  Fe      6.863547      7.980111      6.425352
13
Coordinates from ORCA-job pbe E -2893.400443302976
  Au      8.484829      7.940113      4.265320
  Au      6.242007      6.530757      3.487911
  Au      9.305952      9.297830      6.536188
  Au      8.571802     11.249951      8.317116
  Au      5.880441      9.181848      4.283383
  Au      4.555659      6.800905      5.760065
  Au      6.800990     10.683090      6.268771
  Au      6.944395      5.304970      5.968568
  Au      9.365945      6.569337      6.495274
  Au      5.007889      7.572956      8.291862
  Au      7.535706      6.288911      8.511253
  Au      7.272088      8.979618      8.950025
  Fe      6.872473      7.984808      6.432165
13
Coordinates from ORCA-job pbe E -2893.400477486328
  Au      8.476311      7.945635      4.274229
  Au      6.242458      6.528727      3.482975
  Au      9.312488      9.293583      6.540396
  Au      8.569193     11.254112      8.310042
  Au      5.869624      9.176752      4.292727
  Au      4.559045      6.800550      5.753456
  Au      6.800968     10.684077      6.265306
  Au      6.948436      5.308739      5.963604
  Au      9.366363      6.568395      6.502300
  Au      5.005142      7.578369      8.289571
  Au      7.529089      6.282561      8.511238
  Au      7.283702      8.976901      8.947477
  Fe      6.877356      7.986693      6.434579
13
Coordinates from ORCA-job pbe E -2893.400488690179
  Au      8.479648      7.953946      4.274460
  Au      6.246433      6.531461      3.488943
  Au      9.315100      9.292310      6.544367
  Au      8.569247     11.257631      8.306461
  Au      5.868265      9.178972      4.292871
  Au      4.556321      6.793139      5.754925
  Au      6.795846     10.678481      6.270016
  Au      6.947153      5.304379      5.964981
  Au      9.362413      6.566423      6.499097
  Au      5.005136      7.586831      8.284554
  Au      7.525124      6.282502      8.511286
  Au      7.290825      8.975981      8.945586
  Fe      6.878665      7.983037      6.430351
13
Coordinates from ORCA-job pbe E -2893.400500093128
  Au      8.480206      7.958821      4.275829
  Au      6.249612      6.530424      3.486756
  Au      9.318084      9.292215      6.546856
  Au      8.566587     11.259064      8.304116
  Au      5.863012      9.173603      4.295946
  Au      4.556144      6.797039      5.752854
  Au      6.793550     10.673703      6.269518
  Au      6.944131      5.306328      5.964174
  Au      9.359918      6.565047      6.499322
  Au      5.007655      7.590266      8.282411
  Au      7.523818      6.281701      8.512799
  Au      7.296097      8.974078      8.945691
  Fe      6.881360      7.982805      6.431626
13
Coordinates from ORCA-job pbe E -2893.400511179892
  Au      8.483862      7.967825      4.274400
  Au      6.256571      6.529954      3.486382
  Au      9.319843      9.290462      6.552773
  Au      8.563607     11.262039      8.301833
  Au      5.857434      9.167598      4.297266
  Au      4.554139      6.803240      5.750925
  Au      6.789680     10.667923      6.269793
  Au      6.937169      5.304149      5.966199
  Au      9.354039      6.563195      6.495139
  Au      5.012763      7.594542      8.280569
  Au      7.525178      6.281683      8.514619
  Au      7.300615      8.973850      8.947214
  Fe      6.885276      7.978634      6.430789
13
Coordinates from ORCA-job pbe E -2893.400517058416
  Au      8.484559      7.969533      4.273247
  Au      6.258364      6.527445      3.485138
  Au      9.319039      9.292514      6.552418
  Au      8.561469     11.262232      8.302266
  Au      5.857212      9.164378      4.297543
  Au      4.554859      6.808288      5.750512
  Au      6.787855     10.667458      6.269604
  Au      6.933908      5.303206      5.966271
  Au      9.351793      6.564383      6.494703
  Au      5.014607      7.596838      8.280353
  Au      7.524865      6.279542      8.515659
  Au      7.303025      8.971431      8.947437
  Fe      6.888620      7.977845      6.432749
13
Coordinates from ORCA-job pbe E -2893.400522078744
  Au      8.485578      7.970422      4.270679
  Au      6.260158      6.525746      3.485463
  Au      9.317182      9.294726      6.550930
  Au      8.560525     11.262405      8.303439
  Au      5.858477      9.162758      4.297486
  Au      4.555127      6.812297      5.749499
  Au      6.786048     10.667921      6.270472
  Au      6.931464      5.301050      5.968157
  Au      9.349489      6.566363      6.493443
  Au      5.014855      7.598658      8.280081
  Au      7.524937      6.277293      8.516602
  Au      7.305058      8.970015      8.947879
  Fe      6.891278      7.975439      6.433769
13
Coordinates from ORCA-job pbe E -2893.400524840973
  Au      8.485473      7.969698      4.268983
  Au      6.260578      6.524608      3.486293
  Au      9.316520      9.297396      6.547455
  Au      8.561089     11.261875      8.304367
  Au      5.859915      9.163113      4.298407
  Au      4.555578      6.813578      5.748479
  Au      6.786032     10.668988      6.271445
  Au      6.931085      5.300030      5.969697
  Au      9.348625      6.569297      6.494016
  Au      5.013125      7.598672      8.279557
  Au      7.524016      6.275089      8.517502
  Au      7.305924      8.968537      8.946758
  Fe      6.892218      7.974213      6.434940
13
Coordinates from ORCA-job pbe E -2893.400525677169
  Au      8.485013      7.969685      4.268116
  Au      6.261132      6.524810      3.487955
  Au      9.316878      9.298476      6.545397
  Au      8.561344     11.261793      8.304530
  Au      5.860382      9.163720      4.299508
  Au      4.555905      6.813654      5.747417
  Au      6.786357     10.668624      6.271493
  Au      6.931398      5.299589      5.970444
  Au      9.347386      6.570663      6.494352
  Au      5.011976      7.598317      8.278867
  Au      7.523262      6.274298      8.517894
  Au      7.306630      8.968069      8.946470
  Fe      6.892514      7.973395      6.435457
13
Coordinates from ORCA-job pbe E -2893.400521493436
  Au      8.484218      7.968956      4.267607
  Au      6.258959      6.522085      3.483339
  Au      9.317645      9.300280      6.542069
  Au      8.562925     11.261259      8.305359
  Au      5.861393      9.166483      4.301218
  Au      4.556270      6.812097      5.746826
  Au      6.788167     10.669405      6.272806
  Au      6.933539      5.299117      5.972352
  Au      9.347181      6.572969      6.495859
  Au      5.009424      7.597072      8.278538
  Au      7.521953      6.274189      8.519016
  Au      7.306630      8.968319      8.946526
  Fe      6.891873      7.972864      6.436385
13
Coordinates from ORCA-job pbe E -2893.400526169150
  Au      8.484330      7.969183      4.268014
  Au      6.260021      6.524926      3.487143
  Au      9.317498      9.299229      6.543595
  Au      8.562416     11.261070      8.304511
  Au      5.860426      9.164768      4.299692
  Au      4.556223      6.812060      5.747051
  Au      6.787762     10.669243      6.272451
  Au      6.932620      5.299289      5.970959
  Au      9.348031      6.571521      6.495235
  Au      5.010761      7.597426      8.278500
  Au      7.522368      6.274811      8.518552
  Au      7.305895      8.968269      8.946472
  Fe      6.891825      7.973300      6.435725
13
Coordinates from ORCA-job pbe E -2893.400526237830
  Au      8.484383      7.969882      4.268316
  Au      6.260568      6.524621      3.486997
  Au      9.317777      9.298647      6.544397
  Au      8.562535     11.261141      8.304912
  Au      5.859876      9.164277      4.299762
  Au      4.556216      6.812287      5.747189
  Au      6.787105     10.668429      6.271632
  Au      6.931974      5.299464      5.970509
  Au      9.347462      6.571265      6.494942
  Au      5.011569      7.598023      8.278428
  Au      7.522912      6.275240      8.518269
  Au      7.305735      8.968487      8.946966
  Fe      6.892063      7.973330      6.435582
