11
E=  -1136.10905894;c=0;m=3
Au      8.891076386012720      3.969855161990110      8.160779524954860
Au      6.623296530721930      4.636283114924950      9.485889758121930
Au      7.275614069166230      4.954255003570920      5.717160189544770
Au      6.274510513938500      8.455319159077121      7.988744983652950
Au      5.210335066496620      5.916221565308360      7.337127818428960
Au     11.598919117785050      4.643005847856070      7.939225841125050
Au      9.845763113328980      5.854154897362480      6.174443004927480
Au      7.783539203049690      7.401944726363940     10.188848115040800
Au     10.076824832880620      6.759845485714180      8.921222795548481
Au      8.678986995091760      8.312573900212991      6.574854754591900
Cr      7.723968321527870      6.303699577618840      7.853024344063120
