11
Coordinates from ORCA-job pbe E -2402.471644859852
  Au      8.891076      3.969855      8.160780
  Au      6.623297      4.636283      9.485890
  Au      7.275614      4.954255      5.717160
  Au      6.274511      8.455319      7.988745
  Au      5.210335      5.916222      7.337128
  Au     11.598919      4.643006      7.939226
  Au      9.845763      5.854155      6.174443
  Au      7.783539      7.401945     10.188848
  Au     10.076825      6.759845      8.921223
  Au      8.678987      8.312574      6.574855
  Cr      7.723968      6.303700      7.853024
11
Coordinates from ORCA-job pbe E -2402.472682113047
  Au      8.908825      3.961830      8.161620
  Au      6.624821      4.602158      9.479964
  Au      7.292745      4.938243      5.705463
  Au      6.263564      8.464848      7.993063
  Au      5.196183      5.914563      7.337378
  Au     11.526105      4.667347      7.943367
  Au      9.836349      5.859468      6.177999
  Au      7.805248      7.427429     10.197816
  Au     10.096440      6.753150      8.923661
  Au      8.702984      8.316664      6.566443
  Cr      7.729569      6.301459      7.854547
11
Coordinates from ORCA-job pbe E -2402.473530977173
  Au      8.900031      3.929897      8.172859
  Au      6.614532      4.560165      9.462721
  Au      7.298497      4.921251      5.697475
  Au      6.243364      8.470647      7.996302
  Au      5.177965      5.922465      7.339155
  Au     11.542799      4.652831      7.946143
  Au      9.824806      5.874536      6.149830
  Au      7.826337      7.470622     10.201594
  Au     10.110321      6.774642      8.952133
  Au      8.717074      8.328365      6.562718
  Cr      7.727107      6.301739      7.860391
11
Coordinates from ORCA-job pbe E -2402.474149670187
  Au      8.895364      3.922005      8.178816
  Au      6.603357      4.539235      9.437543
  Au      7.291737      4.914718      5.706608
  Au      6.253104      8.461755      7.997726
  Au      5.190387      5.922078      7.340879
  Au     11.530252      4.662762      7.932226
  Au      9.828261      5.872237      6.155024
  Au      7.838537      7.501322     10.188930
  Au     10.110921      6.777889      8.963924
  Au      8.712193      8.333697      6.572270
  Cr      7.728720      6.299461      7.867375
11
Coordinates from ORCA-job pbe E -2402.475061668692
  Au      8.896273      3.899924      8.183430
  Au      6.570095      4.470029      9.361788
  Au      7.283582      4.898289      5.733221
  Au      6.268865      8.447011      8.005288
  Au      5.211264      5.920419      7.346789
  Au     11.503320      4.677841      7.925927
  Au      9.805003      5.883949      6.163105
  Au      7.878093      7.598257     10.154580
  Au     10.126274      6.780847      8.983630
  Au      8.705468      8.338002      6.595815
  Cr      7.734597      6.292590      7.887748
11
Coordinates from ORCA-job pbe E -2402.475967433407
  Au      8.901489      3.875900      8.187198
  Au      6.529730      4.381296      9.274668
  Au      7.278325      4.872779      5.765100
  Au      6.262393      8.443951      8.011558
  Au      5.211446      5.925553      7.350366
  Au     11.491030      4.684242      7.909637
  Au      9.793286      5.890540      6.173623
  Au      7.928480      7.717160     10.120733
  Au     10.144665      6.784414      9.005399
  Au      8.703449      8.346092      6.625076
  Cr      7.738541      6.285233      7.917963
11
Coordinates from ORCA-job pbe E -2402.477206310055
  Au      8.913188      3.861742      8.184524
  Au      6.494157      4.276624      9.171923
  Au      7.274800      4.848130      5.802955
  Au      6.237287      8.447780      8.022218
  Au      5.193400      5.938349      7.354115
  Au     11.494334      4.680226      7.916152
  Au      9.777477      5.898892      6.183806
  Au      7.996251      7.849845     10.077675
  Au     10.162983      6.778902      9.014172
  Au      8.701386      8.348428      6.659304
  Cr      7.737571      6.278241      7.954477
11
Coordinates from ORCA-job pbe E -2402.478307607286
  Au      8.940368      3.869110      8.181408
  Au      6.454011      4.190330      9.082675
  Au      7.275409      4.830942      5.844431
  Au      6.193923      8.458007      8.030471
  Au      5.160285      5.957993      7.352143
  Au     11.531528      4.661365      7.915259
  Au      9.777253      5.896682      6.197981
  Au      8.054775      7.968248     10.038341
  Au     10.173376      6.755242      9.007092
  Au      8.693713      8.344747      6.698970
  Cr      7.728193      6.274492      7.992549
11
Coordinates from ORCA-job pbe E -2402.478664267474
  Au      8.947572      3.879170      8.185498
  Au      6.444711      4.129022      9.003512
  Au      7.271923      4.815378      5.882090
  Au      6.163830      8.455101      8.035170
  Au      5.143498      5.977381      7.353685
  Au     11.548599      4.651621      7.921068
  Au      9.772904      5.903899      6.204871
  Au      8.105259      8.050292      9.993619
  Au     10.175515      6.733679      9.003498
  Au      8.689419      8.339166      6.735613
  Cr      7.719605      6.272450      8.022695
11
Coordinates from ORCA-job pbe E -2402.478797812411
  Au      8.967350      3.888062      8.195273
  Au      6.431679      4.113561      8.973101
  Au      7.267982      4.814067      5.898223
  Au      6.152620      8.449614      8.036403
  Au      5.140253      5.986387      7.352415
  Au     11.559874      4.640351      7.915786
  Au      9.774607      5.904268      6.202025
  Au      8.117515      8.081038      9.971230
  Au     10.175030      6.719094      9.004192
  Au      8.681613      8.338307      6.754671
  Cr      7.714312      6.272410      8.038002
11
Coordinates from ORCA-job pbe E -2402.478891398268
  Au      8.969061      3.892409      8.208943
  Au      6.432601      4.114518      8.972031
  Au      7.268400      4.818673      5.899658
  Au      6.150441      8.447517      8.031686
  Au      5.138599      5.991263      7.347355
  Au     11.565138      4.646681      7.902972
  Au      9.774652      5.902639      6.198543
  Au      8.117024      8.080136      9.967564
  Au     10.173715      6.708409      9.009094
  Au      8.683117      8.332994      6.758930
  Cr      7.710087      6.271920      8.044545
11
Coordinates from ORCA-job pbe E -2402.478990635366
  Au      8.976316      3.903887      8.234810
  Au      6.440929      4.121768      8.977921
  Au      7.271102      4.833813      5.895940
  Au      6.149455      8.449002      8.023424
  Au      5.136924      5.989705      7.334903
  Au     11.564910      4.648999      7.884188
  Au      9.772225      5.899279      6.190506
  Au      8.116560      8.067371      9.966523
  Au     10.169293      6.695536      9.016963
  Au      8.683387      8.325735      6.760741
  Cr      7.701733      6.272064      8.055404
11
Coordinates from ORCA-job pbe E -2402.479009404096
  Au      8.976507      3.905344      8.239571
  Au      6.440457      4.123884      8.981266
  Au      7.267394      4.839653      5.891588
  Au      6.153411      8.451594      8.022755
  Au      5.136648      5.985147      7.331628
  Au     11.568815      4.652870      7.883649
  Au      9.772115      5.898833      6.190056
  Au      8.113497      8.064734      9.968717
  Au     10.172947      6.690615      9.015918
  Au      8.682607      8.323289      6.758097
  Cr      7.698435      6.271195      8.058075
11
Coordinates from ORCA-job pbe E -2402.479025778075
  Au      8.976809      3.906535      8.238963
  Au      6.440301      4.124631      8.984988
  Au      7.268259      4.843563      5.886906
  Au      6.154470      8.452249      8.022002
  Au      5.136578      5.982472      7.331760
  Au     11.569169      4.650499      7.885165
  Au      9.771714      5.898196      6.192428
  Au      8.114712      8.061174      9.972591
  Au     10.172584      6.693690      9.014573
  Au      8.681453      8.322856      6.753784
  Cr      7.696785      6.271294      8.058162
11
Coordinates from ORCA-job pbe E -2402.479042246457
  Au      8.976134      3.908358      8.236135
  Au      6.440474      4.121558      8.986769
  Au      7.268686      4.850615      5.880281
  Au      6.156444      8.451897      8.021510
  Au      5.136306      5.978695      7.333963
  Au     11.569319      4.645103      7.890405
  Au      9.772635      5.897354      6.198324
  Au      8.118103      8.060792      9.976017
  Au     10.173633      6.698904      9.010417
  Au      8.677723      8.322631      6.747778
  Cr      7.693378      6.271251      8.059722
11
Coordinates from ORCA-job pbe E -2402.479050013143
  Au      8.975038      3.908718      8.234082
  Au      6.439517      4.118160      8.986494
  Au      7.268951      4.856260      5.877132
  Au      6.157537      8.451089      8.021296
  Au      5.135696      5.977533      7.336307
  Au     11.570438      4.643782      7.893417
  Au      9.774394      5.896647      6.202727
  Au      8.120607      8.062184      9.976260
  Au     10.174385      6.701427      9.007367
  Au      8.675569      8.320546      6.744598
  Cr      7.690700      6.270812      8.061641
11
Coordinates from ORCA-job pbe E -2402.479057401228
  Au      8.973513      3.907879      8.231326
  Au      6.439224      4.113689      8.985109
  Au      7.269487      4.863708      5.874893
  Au      6.157726      8.449923      8.021395
  Au      5.134832      5.977189      7.340030
  Au     11.570793      4.642101      7.897600
  Au      9.777985      5.895341      6.206290
  Au      8.122578      8.065022      9.974989
  Au     10.175741      6.704405      9.003703
  Au      8.672811      8.317771      6.741951
  Cr      7.688144      6.270132      8.064036
11
Coordinates from ORCA-job pbe E -2402.479062558549
  Au      8.972460      3.906022      8.228907
  Au      6.438850      4.110746      8.984195
  Au      7.270079      4.870599      5.873945
  Au      6.157204      8.449572      8.021706
  Au      5.133835      5.977495      7.343418
  Au     11.571200      4.641910      7.900985
  Au      9.781700      5.893859      6.207605
  Au      8.123208      8.066927      9.973231
  Au     10.176517      6.706735      9.001050
  Au      8.670995      8.314079      6.740382
  Cr      7.686786      6.269216      8.065897
11
Coordinates from ORCA-job pbe E -2402.479066801889
  Au      8.971680      3.903658      8.226395
  Au      6.439263      4.109478      8.984635
  Au      7.270671      4.877792      5.872682
  Au      6.156439      8.449799      8.021908
  Au      5.133068      5.977646      7.346748
  Au     11.570986      4.641490      7.904635
  Au      9.785464      5.891873      6.207278
  Au      8.122309      8.067378      9.972383
  Au     10.177143      6.709539      8.998773
  Au      8.669196      8.310415      6.738809
  Cr      7.686615      6.268091      8.067075
11
Coordinates from ORCA-job pbe E -2402.479069498991
  Au      8.971453      3.901993      8.224919
  Au      6.439698      4.109812      8.985907
  Au      7.270620      4.882433      5.871241
  Au      6.156234      8.450401      8.021813
  Au      5.132836      5.977373      7.348562
  Au     11.570716      4.641579      7.906679
  Au      9.787393      5.890370      6.206396
  Au      8.120931      8.066715      9.972594
  Au     10.177167      6.711577      8.997933
  Au      8.668331      8.307873      6.737727
  Cr      7.687455      6.267033      8.067550
11
Coordinates from ORCA-job pbe E -2402.479072273296
  Au      8.971116      3.900202      8.222975
  Au      6.440356      4.110807      8.988472
  Au      7.270044      4.888304      5.868102
  Au      6.156723      8.450881      8.021232
  Au      5.132992      5.976789      7.350770
  Au     11.570360      4.641973      7.909560
  Au      9.788813      5.888112      6.205549
  Au      8.118926      8.065020      9.973965
  Au     10.177134      6.714417      8.997059
  Au      8.667208      8.305255      6.735741
  Cr      7.689162      6.265397      8.067896
11
Coordinates from ORCA-job pbe E -2402.479074275406
  Au      8.971013      3.899366      8.222188
  Au      6.440590      4.110766      8.989453
  Au      7.268885      4.891608      5.865699
  Au      6.157556      8.450854      8.020469
  Au      5.133394      5.976182      7.351913
  Au     11.570098      4.642355      7.910702
  Au      9.788688      5.886814      6.205643
  Au      8.118008      8.064986      9.974652
  Au     10.177078      6.716118      8.997244
  Au      8.666813      8.304095      6.734727
  Cr      7.690711      6.264015      8.068631
11
Coordinates from ORCA-job pbe E -2402.479075805483
  Au      8.970922      3.898912      8.221892
  Au      6.440410      4.109570      8.989321
  Au      7.267265      4.894000      5.863517
  Au      6.158605      8.450127      8.019363
  Au      5.133831      5.975857      7.352779
  Au     11.569998      4.643185      7.911469
  Au      9.787499      5.885821      6.206362
  Au      8.118122      8.066132      9.974775
  Au     10.177259      6.717155      8.997881
  Au      8.666756      8.303808      6.734125
  Cr      7.692167      6.262592      8.069836
11
Coordinates from ORCA-job pbe E -2402.479076315262
  Au      8.970902      3.898943      8.222175
  Au      6.440057      4.108190      8.988244
  Au      7.266607      4.894231      5.863405
  Au      6.158874      8.449492      8.018800
  Au      5.133843      5.975877      7.352894
  Au     11.570064      4.643398      7.911187
  Au      9.786739      5.885897      6.207059
  Au      8.118830      8.067657      9.974095
  Au     10.177546      6.717058      8.998318
  Au      8.666997      8.304203      6.734443
  Cr      7.692375      6.262212      8.070702
