11
E=  -1164.95751370;c=0;m=3
Au      6.510979267222730      8.542405984734630      6.267451052636120
Au      7.340834522005570     10.867388943360300      7.700198322768500
Au      9.937118024651090     11.046155690493880      7.119278039203760
Au      4.961183085762280      9.787464017806411      8.518050590538600
Au      7.335278801463840      9.822614201260890     10.355867922125899
Au      6.786284976421700      7.221925136318870     11.117683884953239
Au      4.411352999816540      7.193447003531800      9.440769202817931
Au      8.536498724134740      6.243964243295540      8.906785027903179
Au      6.020418242738810      6.031520642010440      7.315545278665120
Au      9.194776918279160      8.660089746396769      8.017034362363690
Fe      6.736922657503550      7.997548710790470      8.720226116023960
