11
Coordinates from ORCA-job pbe E -2621.713877796352
  Au      6.510979      8.542406      6.267451
  Au      7.340835     10.867389      7.700198
  Au      9.937118     11.046156      7.119278
  Au      4.961183      9.787464      8.518051
  Au      7.335279      9.822614     10.355868
  Au      6.786285      7.221925     11.117684
  Au      4.411353      7.193447      9.440769
  Au      8.536499      6.243964      8.906785
  Au      6.020418      6.031521      7.315545
  Au      9.194777      8.660090      8.017034
  Fe      6.736923      7.997549      8.720226
11
Coordinates from ORCA-job pbe E -2621.715028316401
  Au      6.522156      8.555167      6.254663
  Au      7.329949     10.862644      7.704415
  Au      9.937443     11.085763      7.105573
  Au      4.970898      9.803339      8.510830
  Au      7.348652      9.838162     10.355509
  Au      6.773997      7.202039     11.128146
  Au      4.405585      7.187838      9.443671
  Au      8.527293      6.200438      8.922275
  Au      6.008221      6.010382      7.322875
  Au      9.204830      8.671315      8.011839
  Fe      6.742622      7.997438      8.719093
11
Coordinates from ORCA-job pbe E -2621.715179742684
  Au      6.531815      8.567316      6.243399
  Au      7.339457     10.845636      7.708447
  Au      9.896845     11.070185      7.117581
  Au      4.975622      9.820630      8.504177
  Au      7.360204      9.852614     10.354684
  Au      6.769013      7.194544     11.125958
  Au      4.412983      7.181842      9.444044
  Au      8.529233      6.194764      8.923693
  Au      6.005946      6.005672      7.330421
  Au      9.198681      8.675017      8.012123
  Fe      6.751848      8.006304      8.714362
11
Coordinates from ORCA-job pbe E -2621.715632927381
  Au      6.530143      8.570859      6.234728
  Au      7.333653     10.837465      7.712784
  Au      9.916002     11.081087      7.109603
  Au      4.964275      9.827937      8.503936
  Au      7.361353      9.859929     10.360337
  Au      6.761278      7.189751     11.119233
  Au      4.422933      7.167042      9.446699
  Au      8.528823      6.201039      8.921859
  Au      6.002309      6.005993      7.340996
  Au      9.195362      8.659104      8.017752
  Fe      6.755517      8.014318      8.710963
11
Coordinates from ORCA-job pbe E -2621.715966002394
  Au      6.525142      8.565556      6.226780
  Au      7.333449     10.830025      7.715762
  Au      9.925820     11.082371      7.106540
  Au      4.948374      9.824891      8.507964
  Au      7.360107      9.860073     10.371364
  Au      6.757070      7.192785     11.108634
  Au      4.434912      7.161373      9.445982
  Au      8.520630      6.197544      8.924740
  Au      6.002328      6.014700      7.348896
  Au      9.202623      8.659699      8.016084
  Fe      6.761194      8.025509      8.706144
11
Coordinates from ORCA-job pbe E -2621.716679967112
  Au      6.510952      8.553302      6.203718
  Au      7.327425     10.792679      7.730215
  Au      9.929420     11.077331      7.106019
  Au      4.921607      9.823183      8.513737
  Au      7.356468      9.863278     10.401189
  Au      6.749892      7.200212     11.079912
  Au      4.462790      7.152369      9.442840
  Au      8.500887      6.197005      8.929539
  Au      6.006085      6.037109      7.369319
  Au      9.223976      8.652335      8.013637
  Fe      6.782147      8.065721      8.688765
11
Coordinates from ORCA-job pbe E -2621.717361167534
  Au      6.492765      8.536823      6.178360
  Au      7.324537     10.756212      7.743149
  Au      9.921993     11.069469      7.109547
  Au      4.896317      9.818405      8.520475
  Au      7.350014      9.865777     10.435935
  Au      6.755071      7.201086     11.054490
  Au      4.474035      7.159507      9.437920
  Au      8.479517      6.202242      8.933427
  Au      6.019409      6.051722      7.386021
  Au      9.255259      8.640090      8.010243
  Fe      6.802732      8.113192      8.669323
11
Coordinates from ORCA-job pbe E -2621.717852519651
  Au      6.471291      8.523500      6.157925
  Au      7.320874     10.727397      7.753149
  Au      9.906024     11.059511      7.116195
  Au      4.883509      9.814223      8.524596
  Au      7.337763      9.869507     10.466057
  Au      6.766034      7.194998     11.038720
  Au      4.470639      7.179704      9.432225
  Au      8.470019      6.210557      8.934327
  Au      6.034114      6.055440      7.396421
  Au      9.291600      8.623209      8.006966
  Fe      6.819782      8.156478      8.652309
11
Coordinates from ORCA-job pbe E -2621.718028164220
  Au      6.457608      8.526319      6.157157
  Au      7.322592     10.729500      7.751818
  Au      9.898724     11.056462      7.119205
  Au      4.890803      9.814409      8.523050
  Au      7.325109      9.873484     10.470042
  Au      6.764164      7.193226     11.045100
  Au      4.466305      7.185357      9.431523
  Au      8.483997      6.211512      8.931239
  Au      6.030877      6.050302      7.393303
  Au      9.307147      8.613791      8.005931
  Fe      6.824323      8.160162      8.650522
11
Coordinates from ORCA-job pbe E -2621.718113684164
  Au      6.439441      8.532258      6.158644
  Au      7.324260     10.729066      7.751181
  Au      9.900304     11.050714      7.121594
  Au      4.896249      9.816787      8.521155
  Au      7.306444      9.880172     10.472012
  Au      6.763265      7.190043     11.045700
  Au      4.469362      7.184292      9.431248
  Au      8.494066      6.213339      8.928790
  Au      6.029562      6.048084      7.395029
  Au      9.319387      8.605595      8.004819
  Fe      6.829309      8.164174      8.648717
11
Coordinates from ORCA-job pbe E -2621.718254171888
  Au      6.400711      8.544509      6.166470
  Au      7.332860     10.732676      7.747363
  Au      9.909913     11.041595      7.124240
  Au      4.904638      9.819283      8.518556
  Au      7.265508      9.890795     10.473281
  Au      6.766616      7.184043     11.045301
  Au      4.474433      7.184265      9.430374
  Au      8.507897      6.213188      8.926005
  Au      6.033370      6.043498      7.397906
  Au      9.338474      8.594021      8.002081
  Fe      6.837229      8.166653      8.647315
11
Coordinates from ORCA-job pbe E -2621.718503323794
  Au      6.335076      8.565200      6.181399
  Au      7.349155     10.732813      7.742822
  Au      9.928949     11.027375      7.126566
  Au      4.915271      9.824330      8.514748
  Au      7.195519      9.907642     10.474689
  Au      6.775971      7.175530     11.039827
  Au      4.487105      7.184080      9.427963
  Au      8.523312      6.209288      8.923942
  Au      6.045585      6.039415      7.403900
  Au      9.363576      8.577659      7.998497
  Fe      6.852130      8.171193      8.644538
11
Coordinates from ORCA-job pbe E -2621.718835177669
  Au      6.268438      8.585195      6.199065
  Au      7.368686     10.730924      7.738793
  Au      9.951200     11.015036      7.125899
  Au      4.922320      9.831756      8.511107
  Au      7.123677      9.922153     10.475536
  Au      6.791496      7.166535     11.030309
  Au      4.500958      7.186762      9.424115
  Au      8.530905      6.201018      8.924644
  Au      6.066275      6.036471      7.410669
  Au      9.380483      8.565201      7.996201
  Fe      6.867209      8.173473      8.642553
11
Coordinates from ORCA-job pbe E -2621.719241186470
  Au      6.203629      8.597942      6.214308
  Au      7.390380     10.720266      7.738116
  Au      9.975160     11.005117      7.121640
  Au      4.920658      9.844164      8.508037
  Au      7.054738      9.932084     10.482268
  Au      6.815366      7.158465     11.012369
  Au      4.518795      7.195192      9.417196
  Au      8.525745      6.187307      8.929757
  Au      6.098447      6.038554      7.419410
  Au      9.384217      8.558755      7.995951
  Fe      6.884513      8.176679      8.639838
11
Coordinates from ORCA-job pbe E -2621.719509411021
  Au      6.139610      8.606952      6.228552
  Au      7.408353     10.703702      7.740239
  Au      9.990890     10.990534      7.121682
  Au      4.921805      9.849225      8.506766
  Au      6.987633      9.939635     10.490522
  Au      6.830385      7.168443     11.009003
  Au      4.536705      7.201473      9.410860
  Au      8.537621      6.177416      8.930934
  Au      6.113836      6.048226      7.410477
  Au      9.398062      8.547100      7.994801
  Fe      6.906748      8.181819      8.635054
11
Coordinates from ORCA-job pbe E -2621.719654416519
  Au      6.087966      8.597674      6.225299
  Au      7.425821     10.678865      7.746919
  Au     10.001989     10.981202      7.119220
  Au      4.909171      9.863656      8.506004
  Au      6.942428      9.938194     10.518217
  Au      6.848290      7.182901     11.004879
  Au      4.552903      7.214784      9.401205
  Au      8.540351      6.167917      8.933677
  Au      6.134566      6.058047      7.399840
  Au      9.398939      8.542342      7.995371
  Fe      6.929224      8.188943      8.628259
11
Coordinates from ORCA-job pbe E -2621.719714254081
  Au      6.044796      8.609106      6.239023
  Au      7.434970     10.677621      7.745565
  Au     10.011881     10.971046      7.121093
  Au      4.917009      9.868003      8.503163
  Au      6.895055      9.946761     10.516496
  Au      6.855108      7.182771     11.010151
  Au      4.559722      7.214861      9.399492
  Au      8.555468      6.168849      8.931149
  Au      6.137550      6.056185      7.392874
  Au      9.420939      8.529257      7.993103
  Fe      6.939150      8.190064      8.626780
11
Coordinates from ORCA-job pbe E -2621.719758446080
  Au      6.071653      8.600244      6.229368
  Au      7.425559     10.684199      7.745749
  Au     10.004346     10.978981      7.120362
  Au      4.917970      9.869427      8.502261
  Au      6.925305      9.941994     10.518411
  Au      6.848749      7.177730     11.012665
  Au      4.553027      7.215358      9.400744
  Au      8.549657      6.173116      8.931177
  Au      6.130231      6.050982      7.395898
  Au      9.416363      8.536178      7.992998
  Fe      6.928788      8.186317      8.629255
11
Coordinates from ORCA-job pbe E -2621.719775999905
  Au      6.063112      8.598440      6.228325
  Au      7.426366     10.679402      7.748110
  Au     10.004576     10.978613      7.119798
  Au      4.918189      9.875136      8.500607
  Au      6.919923      9.939748     10.523950
  Au      6.849644      7.179066     11.012178
  Au      4.557484      7.218887      9.397893
  Au      8.549110      6.174195      8.930474
  Au      6.134039      6.048879      7.396718
  Au      9.418885      8.535039      7.992873
  Fe      6.930319      8.187119      8.627964
11
Coordinates from ORCA-job pbe E -2621.719786657079
  Au      6.049507      8.591027      6.229951
  Au      7.430073     10.673982      7.750246
  Au     10.006010     10.978782      7.118391
  Au      4.920013      9.885352      8.497888
  Au      6.905142      9.939828     10.529170
  Au      6.856116      7.173812     11.012330
  Au      4.564179      7.226756      9.394204
  Au      8.550834      6.176132      8.931918
  Au      6.135240      6.049122      7.392991
  Au      9.422877      8.534543      7.993383
  Fe      6.931656      8.185188      8.628418
11
Coordinates from ORCA-job pbe E -2621.719792420951
  Au      6.042446      8.594175      6.232325
  Au      7.432575     10.673488      7.750880
  Au     10.007004     10.978964      7.117907
  Au      4.920849      9.888849      8.496251
  Au      6.902122      9.935734     10.530221
  Au      6.854333      7.176813     11.014172
  Au      4.565408      7.229038      9.392023
  Au      8.552454      6.176625      8.929465
  Au      6.139614      6.042925      7.394945
  Au      9.424425      8.534589      7.992857
  Fe      6.930418      8.183325      8.627844
11
Coordinates from ORCA-job pbe E -2621.719796795982
  Au      6.044657      8.594074      6.232796
  Au      7.432734     10.672800      7.750965
  Au     10.007082     10.978823      7.118055
  Au      4.919757      9.888371      8.496550
  Au      6.903296      9.936480     10.528402
  Au      6.854036      7.174928     11.013171
  Au      4.564750      7.227952      9.392950
  Au      8.553095      6.177671      8.929521
  Au      6.138140      6.043691      7.395784
  Au      9.424531      8.534790      7.993142
  Fe      6.929570      8.184946      8.627555
11
Coordinates from ORCA-job pbe E -2621.719799675055
  Au      6.045916      8.592475      6.234151
  Au      7.434228     10.672047      7.751203
  Au     10.007797     10.980201      7.117259
  Au      4.919095      9.889895      8.496192
  Au      6.904011      9.935367     10.526888
  Au      6.854254      7.172954     11.012975
  Au      4.563939      7.228617      9.393218
  Au      8.554215      6.178331      8.929711
  Au      6.137067      6.043454      7.395867
  Au      9.423598      8.536614      7.993680
  Fe      6.927529      8.184569      8.627747
11
Coordinates from ORCA-job pbe E -2621.719800320766
  Au      6.044512      8.591653      6.234705
  Au      7.435489     10.671233      7.751588
  Au     10.008416     10.980906      7.116656
  Au      4.919076      9.892000      8.495530
  Au      6.903214      9.934216     10.527115
  Au      6.854553      7.171720     11.012690
  Au      4.563824      7.229714      9.392857
  Au      8.554973      6.179143      8.929457
  Au      6.137604      6.042183      7.396647
  Au      9.423592      8.537374      7.994075
  Fe      6.926397      8.184383      8.627569
