15
E=  -1580.68340827;c=0;m=6
Au      5.660728328036380     10.191545651355231      8.286899930704861
Au      6.976137780998400      6.388317029703770      4.571035301561950
Au      6.022050657142750      8.506535922954550      6.137404419375180
Au      5.125925335276490      5.873856225376350      6.574444497999380
Au      7.653391051078930      4.541073476118640      6.725726124713810
Au      6.023531052812930      4.718894908081400      8.978237119998610
Au      5.563349285108940      7.465910837543710      8.883611887937120
Au     10.003291679010839      8.114487337741540      9.388952470165380
Au      7.908098082946670      6.355349710686180     10.143118710063851
Au      7.492772835238810      9.152774348031150     10.152532987707840
Au      8.373144161943380      9.709498248537651      7.506817397917250
Au      9.872606733928670      5.510770751783500      8.205205045735880
Au      9.692680996375691      5.875339403355260      5.309644455082010
Au      8.725760853565550      8.625882172565101      4.974812075338280
Mn      9.730553136535560      7.652025176165960      6.992940065698670
