15
E=  -1581.19598189;c=0;m=4
Au      7.822445597182460      5.000492314051630      8.104403946027540
Au      8.363563101798359     10.151522442009229      6.652745623807490
Au      8.288111467754931      8.167981980741709      4.578563829954080
Au     10.520967301317480      8.374587263348340      6.380904006618270
Au      9.721066518627669      9.150027290276940      9.012565724973280
Au      9.340524115228311      5.793190759554040      5.815523857863170
Au      6.564209143736380      6.218095756416490      5.792130304764610
Au      8.084629211716020      7.050224923069990     10.107877957627061
Au      5.689143055793250      6.745086593013740      8.696436166706359
Au      6.932892900371260      9.466835625846871      9.291046022851440
Au      4.013437987841360      7.032760197119660      6.434753934581780
Au      4.368575026136230      9.163032656524059      8.218724125622799
Au      5.965489308606070     11.301826400275530      7.366339053560500
Au      5.890043128337790      9.016355018284980      5.704273505372900
Mn      9.216613865552571      7.008084679466770      7.936212139668810
