17
E=  -1817.61620350;c=0;m=5
Au      3.809913845740550      7.713329558611490      7.010433688377610
Au      5.199129129205380      5.920534411652100      5.249401295759510
Au      5.524932902374940      8.784111353624290      4.877325567351630
Au      9.345696337124361      6.987495127810330      7.031055631708100
Au      7.830074192498240      7.086666088472160      4.652365216665770
Au      7.548649496446530      4.911751119316000      6.496292568324420
Au      5.159718887943860      5.353460053082400      8.033421514254330
Au      7.837782944689000      5.685031620638530      9.159387800069830
Au     10.215470603060220      9.564878463502501      7.704241605431590
Au      7.955456261491130      9.599950427464661      6.102963942542510
Au      5.443369378900600     10.029044523608579      7.433943711095220
Au      5.485200041943610      5.657631588726460     10.767414711297571
Au      5.168839014776130      8.111698065486150      9.452337540128910
Au      7.378264976521570      7.713932035768260     11.179245948271509
Au      7.684118251197370      9.518891776113129      9.013201779365581
Au      9.785422351219839      7.660765496803790      9.746715663878840
Fe      6.541609834866730      7.475125019319150      7.041515565477050
