17
Coordinates from ORCA-job pbe E -3436.760400492833
  Au      3.809914      7.713330      7.010434
  Au      5.199129      5.920534      5.249401
  Au      5.524933      8.784111      4.877326
  Au      9.345696      6.987495      7.031056
  Au      7.830074      7.086666      4.652365
  Au      7.548649      4.911751      6.496293
  Au      5.159719      5.353460      8.033422
  Au      7.837783      5.685032      9.159388
  Au     10.215471      9.564878      7.704242
  Au      7.955456      9.599950      6.102964
  Au      5.443369     10.029045      7.433944
  Au      5.485200      5.657632     10.767415
  Au      5.168839      8.111698      9.452338
  Au      7.378265      7.713932     11.179246
  Au      7.684118      9.518892      9.013202
  Au      9.785422      7.660765      9.746716
  Fe      6.541610      7.475125      7.041516
17
Coordinates from ORCA-job pbe E -3436.763037876450
  Au      3.833918      7.713860      7.035076
  Au      5.218817      5.926338      5.276471
  Au      5.539558      8.781894      4.908116
  Au      9.324485      6.988029      7.029458
  Au      7.839798      7.089961      4.684422
  Au      7.537265      4.944486      6.511719
  Au      5.173439      5.363313      8.029060
  Au      7.829383      5.698687      9.143542
  Au     10.183841      9.546110      7.699074
  Au      7.945616      9.590512      6.113751
  Au      5.464489      9.996898      7.434211
  Au      5.494639      5.674008     10.735409
  Au      5.177693      8.109547      9.432785
  Au      7.370270      7.714134     11.142821
  Au      7.674993      9.503543      8.999487
  Au      9.757053      7.657195      9.723049
  Fe      6.548392      7.475783      7.052811
17
Coordinates from ORCA-job pbe E -3436.763265513527
  Au      3.818517      7.707692      7.040561
  Au      5.216636      5.928022      5.271725
  Au      5.536289      8.779688      4.904219
  Au      9.325314      6.991398      7.034672
  Au      7.851422      7.095878      4.672873
  Au      7.531875      4.943095      6.522471
  Au      5.179236      5.352055      8.039616
  Au      7.827650      5.705917      9.142430
  Au     10.177979      9.536095      7.703271
  Au      7.951567      9.602889      6.122568
  Au      5.477027      9.999165      7.434929
  Au      5.500988      5.683176     10.731132
  Au      5.182305      8.105889      9.436576
  Au      7.366023      7.715909     11.125404
  Au      7.675724      9.496676      8.997774
  Au      9.743155      7.654681      9.712387
  Fe      6.551941      7.476074      7.058658
17
Coordinates from ORCA-job pbe E -3436.763554250309
  Au      3.819754      7.700971      7.048214
  Au      5.220555      5.935656      5.277124
  Au      5.539416      8.772912      4.911155
  Au      9.328250      6.988608      7.028248
  Au      7.856886      7.103737      4.676454
  Au      7.520746      4.950435      6.524345
  Au      5.177476      5.338788      8.037253
  Au      7.825256      5.704674      9.139605
  Au     10.187817      9.539223      7.696012
  Au      7.949736      9.615656      6.118528
  Au      5.484838      9.991273      7.427261
  Au      5.490650      5.678718     10.736603
  Au      5.175238      8.107356      9.435881
  Au      7.360694      7.719444     11.126518
  Au      7.674877      9.498197      8.993749
  Au      9.745951      7.652276      9.709791
  Fe      6.555510      7.476371      7.064522
17
Coordinates from ORCA-job pbe E -3436.763777618018
  Au      3.825438      7.690903      7.058954
  Au      5.220319      5.946666      5.279897
  Au      5.542464      8.762532      4.913561
  Au      9.332486      6.985844      7.022876
  Au      7.863312      7.115726      4.685579
  Au      7.512277      4.954326      6.516174
  Au      5.173439      5.321433      8.040121
  Au      7.820941      5.706420      9.141232
  Au     10.196563      9.537638      7.687519
  Au      7.953414      9.632854      6.114566
  Au      5.481789      9.986100      7.417240
  Au      5.480513      5.677683     10.740346
  Au      5.168277      8.108569      9.436857
  Au      7.355878      7.723300     11.124417
  Au      7.679402      9.497591      8.990262
  Au      9.745235      7.649733      9.706451
  Fe      6.561902      7.476980      7.075213
17
Coordinates from ORCA-job pbe E -3436.763965990941
  Au      3.827803      7.677093      7.068513
  Au      5.215915      5.955152      5.281542
  Au      5.546530      8.754743      4.911717
  Au      9.338641      6.979180      7.020667
  Au      7.870374      7.131132      4.691534
  Au      7.509115      4.959199      6.512056
  Au      5.172079      5.304657      8.040743
  Au      7.813983      5.709187      9.141550
  Au     10.203125      9.532277      7.677143
  Au      7.953506      9.649685      6.112152
  Au      5.479894      9.980181      7.414342
  Au      5.470650      5.679864     10.740745
  Au      5.162780      8.113384      9.440356
  Au      7.349313      7.727864     11.121613
  Au      7.683983      9.496102      8.983834
  Au      9.744683      7.646701      9.701655
  Fe      6.571275      7.477895      7.091102
17
Coordinates from ORCA-job pbe E -3436.764183958007
  Au      3.830829      7.663893      7.075003
  Au      5.213212      5.959508      5.284802
  Au      5.551274      8.751670      4.911609
  Au      9.349400      6.968674      7.022350
  Au      7.874931      7.145691      4.697647
  Au      7.508904      4.964380      6.500927
  Au      5.172838      5.290154      8.038147
  Au      7.803829      5.713637      9.141919
  Au     10.205771      9.522121      7.665160
  Au      7.950056      9.664454      6.111101
  Au      5.469894      9.973360      7.411015
  Au      5.461917      5.685715     10.736980
  Au      5.157595      8.121768      9.449096
  Au      7.344864      7.733233     11.118632
  Au      7.690530      9.493192      8.974803
  Au      9.743132      7.643612      9.698065
  Fe      6.584673      7.479234      7.114008
17
Coordinates from ORCA-job pbe E -3436.764378537190
  Au      3.834547      7.657116      7.078223
  Au      5.212902      5.962081      5.284596
  Au      5.551981      8.750197      4.911985
  Au      9.359560      6.954307      7.024025
  Au      7.876278      7.153357      4.703761
  Au      7.517218      4.966274      6.493223
  Au      5.176629      5.283480      8.032574
  Au      7.794381      5.717088      9.139338
  Au     10.203778      9.512742      7.653133
  Au      7.942590      9.671784      6.112161
  Au      5.458689      9.970171      7.416330
  Au      5.455377      5.692042     10.728350
  Au      5.152364      8.133524      9.456328
  Au      7.344489      7.738449     11.116504
  Au      7.693351      9.490609      8.965382
  Au      9.741357      7.640506      9.698000
  Fe      6.598157      7.480568      7.137351
17
Coordinates from ORCA-job pbe E -3436.764535113261
  Au      3.838437      7.655534      7.077169
  Au      5.221692      5.963373      5.284684
  Au      5.548731      8.750367      4.919950
  Au      9.373080      6.940522      7.025854
  Au      7.874708      7.155584      4.709412
  Au      7.525684      4.963040      6.484170
  Au      5.182172      5.283109      8.021468
  Au      7.787504      5.719796      9.134359
  Au     10.198732      9.500427      7.643658
  Au      7.930237      9.672336      6.113494
  Au      5.445891      9.972470      7.420323
  Au      5.451248      5.701341     10.719550
  Au      5.145423      8.145257      9.466934
  Au      7.346014      7.742657     11.114918
  Au      7.692819      9.488110      8.956963
  Au      9.739839      7.638443      9.697961
  Fe      6.611437      7.481930      7.160395
17
Coordinates from ORCA-job pbe E -3436.764614027069
  Au      3.843104      7.658035      7.078071
  Au      5.234257      5.966511      5.280444
  Au      5.539221      8.747857      4.929471
  Au      9.383232      6.927666      7.023560
  Au      7.873425      7.153870      4.715114
  Au      7.534570      4.956163      6.481514
  Au      5.186010      5.284788      8.013996
  Au      7.784450      5.719693      9.128890
  Au     10.194892      9.493853      7.635614
  Au      7.921459      9.671389      6.113669
  Au      5.438179      9.978840      7.426900
  Au      5.447183      5.707224     10.710723
  Au      5.137550      8.155941      9.471978
  Au      7.347656      7.744496     11.112818
  Au      7.688990      9.487739      8.952006
  Au      9.738188      7.637279      9.698890
  Fe      6.621284      7.482952      7.177608
17
Coordinates from ORCA-job pbe E -3436.764648478583
  Au      3.845153      7.660084      7.076161
  Au      5.242573      5.964270      5.281497
  Au      5.536215      8.750545      4.936709
  Au      9.387399      6.923173      7.020740
  Au      7.871803      7.152194      4.717387
  Au      7.539126      4.949223      6.482559
  Au      5.185524      5.288175      8.009073
  Au      7.787490      5.717909      9.125940
  Au     10.191104      9.491054      7.633689
  Au      7.917533      9.667590      6.111882
  Au      5.436686      9.986767      7.430094
  Au      5.446092      5.709271     10.708325
  Au      5.132698      8.160557      9.474090
  Au      7.348569      7.742886     11.111153
  Au      7.684891      9.488678      8.952750
  Au      9.736866      7.638541      9.697160
  Fe      6.623928      7.483381      7.182055
17
Coordinates from ORCA-job pbe E -3436.764670636962
  Au      3.847369      7.661658      7.076194
  Au      5.250165      5.964671      5.282048
  Au      5.532259      8.749893      4.943337
  Au      9.390736      6.920095      7.016503
  Au      7.870146      7.151052      4.718390
  Au      7.539962      4.943504      6.485855
  Au      5.184442      5.289037      8.009509
  Au      7.790870      5.714961      9.124661
  Au     10.189324      9.491145      7.632544
  Au      7.917944      9.667390      6.109967
  Au      5.438494      9.992969      7.431431
  Au      5.445260      5.710250     10.704955
  Au      5.128154      8.163527      9.473899
  Au      7.346464      7.739024     11.108155
  Au      7.681278      9.490775      8.955061
  Au      9.735549      7.640654      9.694579
  Fe      6.625231      7.483691      7.184176
17
Coordinates from ORCA-job pbe E -3436.764680801118
  Au      3.847867      7.661674      7.075825
  Au      5.251908      5.963635      5.282969
  Au      5.532666      8.751026      4.944740
  Au      9.390814      6.918960      7.013817
  Au      7.870008      7.151263      4.718994
  Au      7.540265      4.942227      6.488308
  Au      5.182851      5.287993      8.010703
  Au      7.794588      5.712677      9.125174
  Au     10.187476      9.491081      7.632172
  Au      7.919668      9.668225      6.109250
  Au      5.440685      9.995258      7.431750
  Au      5.444471      5.709681     10.705423
  Au      5.125751      8.165504      9.473443
  Au      7.345599      7.736132     11.105833
  Au      7.680065      9.492477      8.957677
  Au      9.733805      7.642581      9.691408
  Fe      6.625162      7.483902      7.183777
17
Coordinates from ORCA-job pbe E -3436.764687429923
  Au      3.848852      7.660321      7.076170
  Au      5.251425      5.963218      5.284286
  Au      5.533309      8.751126      4.944716
  Au      9.392586      6.917206      7.012410
  Au      7.869184      7.152487      4.718821
  Au      7.539715      4.942524      6.489107
  Au      5.183146      5.286824      8.011779
  Au      7.796300      5.710697      9.126515
  Au     10.187924      9.490801      7.631316
  Au      7.920044      9.670294      6.108773
  Au      5.441310      9.994948      7.431518
  Au      5.443381      5.710911     10.703970
  Au      5.124187      8.167328      9.473775
  Au      7.343805      7.733609     11.103523
  Au      7.679885      9.494111      8.959766
  Au      9.732636      7.643729      9.689812
  Fe      6.625958      7.484163      7.185006
17
Coordinates from ORCA-job pbe E -3436.764693258478
  Au      3.850063      7.658643      7.076365
  Au      5.250815      5.964212      5.283954
  Au      5.533944      8.750227      4.943889
  Au      9.394951      6.914488      7.011447
  Au      7.868920      7.154355      4.720039
  Au      7.539487      4.944108      6.488662
  Au      5.184593      5.284601      8.012157
  Au      7.797664      5.707972      9.128167
  Au     10.187014      9.488752      7.628422
  Au      7.919506      9.672826      6.110049
  Au      5.441182      9.993434      7.430955
  Au      5.440574      5.712253     10.703178
  Au      5.121813      8.170532      9.475580
  Au      7.342796      7.731927     11.101627
  Au      7.680708      9.496362      8.960824
  Au      9.731446      7.644964      9.687417
  Fe      6.628174      7.484638      7.188532
17
Coordinates from ORCA-job pbe E -3436.764697062636
  Au      3.850916      7.657979      7.076851
  Au      5.249441      5.963839      5.283926
  Au      5.534344      8.750378      4.942628
  Au      9.396366      6.912610      7.011612
  Au      7.868945      7.154823      4.720869
  Au      7.539934      4.945238      6.487622
  Au      5.186646      5.284576      8.011355
  Au      7.798368      5.705679      9.129154
  Au     10.187296      9.487706      7.626599
  Au      7.917728      9.673514      6.110946
  Au      5.439857      9.992347      7.431006
  Au      5.438793      5.713749     10.702091
  Au      5.121092      8.172331      9.476714
  Au      7.342757      7.731380     11.100228
  Au      7.680986      9.498243      8.961745
  Au      9.730564      7.644941      9.687072
  Fe      6.629614      7.484963      7.190846
17
Coordinates from ORCA-job pbe E -3436.764699260697
  Au      3.851396      7.657969      7.077196
  Au      5.249253      5.964551      5.283340
  Au      5.534221      8.749648      4.942409
  Au      9.397020      6.911772      7.012344
  Au      7.869057      7.155000      4.721499
  Au      7.540235      4.945256      6.486530
  Au      5.188288      5.285104      8.010524
  Au      7.798846      5.703392      9.129562
  Au     10.187105      9.486886      7.625386
  Au      7.916166      9.673163      6.111949
  Au      5.438840      9.992106      7.430898
  Au      5.437569      5.714565     10.701738
  Au      5.120934      8.173260      9.477358
  Au      7.343076      7.731646     11.099367
  Au      7.680934      9.500084      8.961917
  Au      9.730054      7.644676      9.686790
  Fe      6.630654      7.485217      7.192457
