11
E=  -1164.47742491;c=0;m=5
Au     10.705162038618081      5.105480483126140      5.279396790510680
Au      7.168482940413040      7.588920982020970      6.469648057913870
Au      7.905756502083450      5.117790089244300      5.410638309712860
Au      9.412885892729680      3.803663441568760      7.482349421711840
Au      9.544667103220849      8.853089762106620      7.103877906551490
Au      7.521981953917300      5.700440876133100      8.528576696726940
Au      9.966198711168939      5.434753204576020      9.759559901202341
Au     12.660322381543990      5.905394861482130     10.174057799859650
Au     11.343347025887519      7.745354525720030      8.672721012866671
Au     12.060795171910669      5.086326367775730      7.624218307281160
Fe      9.539338798506479      6.388134116246190      7.145952105662510
