17
E=  -1788.57638363;c=0;m=3
Au      5.858955500680780      5.473060803463630      9.282344118633720
Au      6.456604486418570      7.967352853415750     10.178666745004220
Au      7.494247140959080     10.548905169177941     10.194524029966740
Au      5.782979922210550      9.762043552892649      8.146490215241601
Au      7.504664070632730      9.286117088079870      5.866730881427220
Au      8.154794543819721     11.424014809581170      7.553807319088730
Au      6.972527630004450      6.695672443982830      4.982928247321260
Au      4.839423175534480      5.524635845331710      6.637098311612350
Au      4.796454720160620      8.303688961678899      6.077188869130050
Au      7.667638990017390      4.843893188252830      7.079572445115850
Au     10.234491362668050      9.708108799240049      6.607781110052250
Au      9.326426414510950      7.068852778775150      6.513481310507920
Au     10.913596812400060      7.899003464600420      8.656111768135929
Au     10.201097165506511     10.580813922338310      9.325215052240630
Au      9.275486217492080      8.438287965454650     10.934438996541591
Au      8.630467071573250      6.286826200917160      9.262748275789910
Cr      6.628850215411100      7.256284052816940      7.573399624190280
