17
Coordinates from ORCA-job pbe E -3217.476905459612
  Au      5.858956      5.473061      9.282344
  Au      6.456604      7.967353     10.178667
  Au      7.494247     10.548905     10.194524
  Au      5.782980      9.762044      8.146490
  Au      7.504664      9.286117      5.866731
  Au      8.154795     11.424015      7.553807
  Au      6.972528      6.695672      4.982928
  Au      4.839423      5.524636      6.637098
  Au      4.796455      8.303689      6.077189
  Au      7.667639      4.843893      7.079572
  Au     10.234491      9.708109      6.607781
  Au      9.326426      7.068853      6.513481
  Au     10.913597      7.899003      8.656112
  Au     10.201097     10.580814      9.325215
  Au      9.275486      8.438288     10.934439
  Au      8.630467      6.286826      9.262748
  Cr      6.628850      7.256284      7.573400
17
Coordinates from ORCA-job pbe E -3217.479777866701
  Au      5.858475      5.462877      9.308439
  Au      6.468384      7.979751     10.191014
  Au      7.509407     10.533576     10.175931
  Au      5.792563      9.779253      8.152916
  Au      7.512713      9.293795      5.876237
  Au      8.154599     11.394824      7.555851
  Au      7.007314      6.710964      4.981393
  Au      4.841281      5.514235      6.627621
  Au      4.783517      8.325726      6.066198
  Au      7.703147      4.855679      7.081361
  Au     10.203036      9.691034      6.621301
  Au      9.306234      7.073353      6.524533
  Au     10.875648      7.898776      8.650458
  Au     10.184773     10.554381      9.307270
  Au      9.265584      8.434935     10.906970
  Au      8.636515      6.299366      9.266094
  Cr      6.635518      7.265037      7.578940
17
Coordinates from ORCA-job pbe E -3217.480689789404
  Au      5.861475      5.462405      9.334059
  Au      6.474396      7.978726     10.208923
  Au      7.522449     10.523351     10.162388
  Au      5.790704      9.797780      8.148462
  Au      7.518867      9.306283      5.861968
  Au      8.139548     11.379840      7.554472
  Au      6.998062      6.707342      4.968600
  Au      4.855488      5.513890      6.623137
  Au      4.776671      8.349681      6.063045
  Au      7.697418      4.839866      7.081188
  Au     10.189170      9.696902      6.629431
  Au      9.327188      7.071852      6.516896
  Au     10.862052      7.902972      8.660706
  Au     10.180903     10.550319      9.304980
  Au      9.247898      8.425989     10.897989
  Au      8.651165      6.289943      9.275796
  Cr      6.645253      7.270421      7.580486
17
Coordinates from ORCA-job pbe E -3217.481405554444
  Au      5.871960      5.459847      9.351257
  Au      6.471053      7.980068     10.231452
  Au      7.537517     10.519077     10.153141
  Au      5.779831      9.818275      8.149324
  Au      7.512142      9.307109      5.839298
  Au      8.119094     11.368730      7.549165
  Au      7.009941      6.724851      4.974886
  Au      4.888874      5.519127      6.617199
  Au      4.778760      8.367672      6.056114
  Au      7.710067      4.852101      7.091894
  Au     10.165876      9.689764      6.627749
  Au      9.320367      7.059229      6.508843
  Au     10.839729      7.893150      8.662810
  Au     10.192678     10.548738      9.299544
  Au      9.227579      8.412557     10.894972
  Au      8.653913      6.266128      9.279484
  Cr      6.659323      7.281139      7.585395
17
Coordinates from ORCA-job pbe E -3217.481858279308
  Au      5.887434      5.469143      9.356455
  Au      6.460382      7.980502     10.234931
  Au      7.546491     10.509912     10.141720
  Au      5.769269      9.818768      8.153048
  Au      7.504590      9.308885      5.818269
  Au      8.105313     11.357153      7.548726
  Au      7.000289      6.730055      4.976098
  Au      4.918903      5.534053      6.620746
  Au      4.793149      8.378322      6.059554
  Au      7.702459      4.851272      7.099375
  Au     10.150965      9.684793      6.636085
  Au      9.329568      7.055932      6.503172
  Au     10.822152      7.896090      8.663513
  Au     10.205848     10.550924      9.297310
  Au      9.210630      8.405770     10.889065
  Au      8.655782      6.243667      9.284444
  Cr      6.675483      7.292320      7.590016
17
Coordinates from ORCA-job pbe E -3217.482275729493
  Au      5.895153      5.468192      9.355721
  Au      6.440612      7.984011     10.238139
  Au      7.558986     10.509849     10.137204
  Au      5.752123      9.817147      8.162549
  Au      7.495720      9.322253      5.791069
  Au      8.096795     11.357615      7.545943
  Au      6.998091      6.727731      4.969342
  Au      4.933870      5.545193      6.625937
  Au      4.799578      8.379272      6.056818
  Au      7.702397      4.844007      7.097875
  Au     10.136472      9.686445      6.638323
  Au      9.324773      7.039016      6.489938
  Au     10.809079      7.894863      8.670678
  Au     10.236196     10.569719      9.304420
  Au      9.202199      8.400160     10.892531
  Au      8.662897      6.217352      9.300993
  Cr      6.693765      7.304738      7.595049
17
Coordinates from ORCA-job pbe E -3217.482562138403
  Au      5.900933      5.469089      9.344592
  Au      6.431327      7.989605     10.232564
  Au      7.568800     10.508051     10.132141
  Au      5.748750      9.811015      8.170839
  Au      7.488813      9.325745      5.782451
  Au      8.093545     11.353020      7.547952
  Au      6.999915      6.724933      4.966408
  Au      4.931966      5.557117      6.637023
  Au      4.808634      8.370750      6.057139
  Au      7.704730      4.841121      7.094986
  Au     10.123605      9.678526      6.643679
  Au      9.325946      7.036907      6.487460
  Au     10.793455      7.895306      8.667422
  Au     10.250134     10.582632      9.311585
  Au      9.195477      8.399654     10.889398
  Au      8.662070      6.207593      9.306870
  Cr      6.710607      7.316500      7.600020
17
Coordinates from ORCA-job pbe E -3217.482790761027
  Au      5.901359      5.470752      9.329697
  Au      6.428033      7.989449     10.226472
  Au      7.579851     10.507596     10.128289
  Au      5.749696      9.805553      8.171149
  Au      7.482856      9.327235      5.778425
  Au      8.093865     11.348470      7.548819
  Au      7.003686      6.711999      4.966742
  Au      4.919018      5.569713      6.652495
  Au      4.813981      8.357171      6.060615
  Au      7.704630      4.839889      7.082411
  Au     10.111512      9.675588      6.655233
  Au      9.327314      7.031370      6.481692
  Au     10.777658      7.902930      8.667717
  Au     10.260985     10.598362      9.322532
  Au      9.191888      8.398881     10.885124
  Au      8.659527      6.202167      9.309936
  Cr      6.732847      7.330438      7.605179
17
Coordinates from ORCA-job pbe E -3217.482904628782
  Au      5.895590      5.468745      9.321166
  Au      6.430897      7.989815     10.228281
  Au      7.579037     10.508302     10.129219
  Au      5.753072      9.808941      8.169555
  Au      7.480278      9.321283      5.777341
  Au      8.091908     11.349290      7.547250
  Au      7.004877      6.704739      4.968913
  Au      4.907793      5.574395      6.660452
  Au      4.811056      8.347353      6.062159
  Au      7.702681      4.840232      7.075167
  Au     10.109510      9.673132      6.659640
  Au      9.337959      7.030817      6.477784
  Au     10.773282      7.906778      8.665649
  Au     10.265446     10.607858      9.329646
  Au      9.190329      8.396365     10.886535
  Au      8.656411      6.199549      9.305159
  Cr      6.748580      7.339968      7.608612
17
Coordinates from ORCA-job pbe E -3217.482987737617
  Au      5.890325      5.472079      9.317597
  Au      6.435525      7.985226     10.230949
  Au      7.577304     10.506504     10.128468
  Au      5.755864      9.812574      8.162965
  Au      7.482164      9.316736      5.778148
  Au      8.090522     11.349091      7.544282
  Au      7.003271      6.699163      4.974039
  Au      4.905375      5.577285      6.663916
  Au      4.808460      8.342877      6.067949
  Au      7.697863      4.843060      7.070218
  Au     10.106508      9.677267      6.661473
  Au      9.344132      7.026142      6.471973
  Au     10.770892      7.909047      8.670197
  Au     10.261607     10.609840      9.332536
  Au      9.189728      8.392776     10.886897
  Au      8.655915      6.199872      9.299799
  Cr      6.763252      7.348024      7.611120
17
Coordinates from ORCA-job pbe E -3217.483042441626
  Au      5.884129      5.474191      9.317424
  Au      6.434160      7.982540     10.236018
  Au      7.574683     10.505604     10.128987
  Au      5.752186      9.816399      8.160346
  Au      7.483500      9.313921      5.778330
  Au      8.090489     11.351751      7.542707
  Au      7.001734      6.701189      4.977009
  Au      4.910577      5.574892      6.660352
  Au      4.803844      8.341174      6.072427
  Au      7.695937      4.845394      7.071985
  Au     10.108313      9.677744      6.660131
  Au      9.349917      7.024721      6.469229
  Au     10.772623      7.908921      8.670307
  Au     10.257652     10.603742      9.328159
  Au      9.191160      8.391588     10.889221
  Au      8.655633      6.200166      9.296622
  Cr      6.772168      7.353626      7.613273
17
Coordinates from ORCA-job pbe E -3217.483081320147
  Au      5.880040      5.479772      9.316732
  Au      6.432015      7.983187     10.239018
  Au      7.568924     10.500686     10.126507
  Au      5.749881      9.818661      8.161679
  Au      7.484486      9.315241      5.778006
  Au      8.087124     11.353220      7.542295
  Au      7.000127      6.705654      4.978487
  Au      4.920014      5.574974      6.657298
  Au      4.802654      8.340230      6.079280
  Au      7.695250      4.846893      7.076009
  Au     10.109473      9.677535      6.654580
  Au      9.353315      7.020415      6.464747
  Au     10.775373      7.904543      8.670150
  Au     10.250964     10.595471      9.322186
  Au      9.189139      8.390452     10.892025
  Au      8.656399      6.199901      9.297497
  Cr      6.783529      7.360724      7.616032
17
Coordinates from ORCA-job pbe E -3217.483101737971
  Au      5.878213      5.483195      9.314282
  Au      6.425261      7.983576     10.241034
  Au      7.569502     10.500312     10.126386
  Au      5.743052      9.818517      8.164165
  Au      7.482344      9.320080      5.777989
  Au      8.087920     11.354668      7.542038
  Au      7.001764      6.709296      4.977866
  Au      4.927796      5.573866      6.654077
  Au      4.803029      8.337725      6.083032
  Au      7.698222      4.847728      7.078772
  Au     10.108903      9.673804      6.650567
  Au      9.352957      7.020194      6.464566
  Au     10.774706      7.899907      8.667505
  Au     10.248707     10.587952      9.316214
  Au      9.190297      8.390339     10.893063
  Au      8.656060      6.200568      9.302616
  Cr      6.789974      7.365834      7.618355
17
Coordinates from ORCA-job pbe E -3217.483109462104
  Au      5.878834      5.484444      9.312377
  Au      6.423534      7.986105     10.240988
  Au      7.570634     10.500164     10.125824
  Au      5.742381      9.818156      8.167312
  Au      7.479131      9.322924      5.777219
  Au      8.088157     11.354282      7.543892
  Au      7.003174      6.710369      4.976015
  Au      4.928618      5.573541      6.653361
  Au      4.804933      8.336663      6.083989
  Au      7.700378      4.846688      7.079418
  Au     10.108719      9.672428      6.648942
  Au      9.352266      7.018976      6.463553
  Au     10.774917      7.898250      8.666344
  Au     10.246244     10.585787      9.314764
  Au      9.189863      8.392389     10.893053
  Au      8.654428      6.198961      9.306508
  Cr      6.792494      7.367434      7.618965
17
Coordinates from ORCA-job pbe E -3217.483111931241
  Au      5.879823      5.485337      9.311747
  Au      6.423666      7.986971     10.240766
  Au      7.569675     10.500910     10.126868
  Au      5.742707      9.818213      8.168156
  Au      7.477773      9.324583      5.777173
  Au      8.088149     11.353753      7.543332
  Au      7.004002      6.709960      4.975774
  Au      4.928577      5.573144      6.653082
  Au      4.806158      8.336404      6.084204
  Au      7.701190      4.846816      7.079044
  Au     10.107974      9.671301      6.647817
  Au      9.351958      7.019334      6.463780
  Au     10.774188      7.896587      8.665704
  Au     10.245913     10.585619      9.314972
  Au      9.189922      8.391549     10.892573
  Au      8.653989      6.199183      9.308467
  Cr      6.793040      7.367896      7.619068
