17
E=  -1798.56559462;c=0;m=6
Au      7.654459161291100      9.627477896692270      4.561833882361600
Au      4.898964241646230      9.461857591936679      5.085874646451400
Au      3.957806491140650      9.283131651940691      7.667527272521400
Au      6.253134637114190      7.278058995773880      3.982943963004580
Au      4.643663032933090      6.886293776575180      6.350818453972800
Au      5.053646039174550      7.217013589373690      9.243538283631059
Au      5.734924354749820      9.960272648037190      9.664988537597690
Au      6.642294837501860     10.517951372871780      7.052937126675720
Au      5.631104322023250      4.759589022683890      8.006455301647151
Au      8.590988069983689      4.937684930876780      7.443421372842010
Au      9.292456140711840      7.472098751603710      8.437274336523091
Au      7.493808497589520      7.999577579766160     10.733520811842450
Au      8.500261613920260     10.126470629761830      9.138897949318840
Au      9.488626270192700      9.615776975951290      6.615414521531300
Au      6.661171315058610      5.014233959241940      5.411961273184030
Au      8.650825170700580      7.127470249324460      5.588412926739430
Mn      7.324747254268070      6.078195917588600      9.236495010155449
