%pal nprocs 1 end 

!PBE def2-TZVP OPT UNO
!SLOWCONV

*xyz 0 3 
Au  6.34102047458243      5.00579134310141      7.14224664868982
Au  8.92575698720606      6.15455258356917      7.34443711744721
Au  4.42242535946242      7.03554123975347      8.31933316976128
Au  7.02113283154307      6.61973011325423      9.40730182944275
Au  8.71093133667858      8.79234311864774      8.40837082291683
Au  4.45757940853322      9.26889002191293      6.60172835498161
Au  6.00396719710787      9.23153528376023      9.13582253091306
Au  4.69947760077910      6.62227974073894      5.50303486018601
Au  9.79544247885046     10.51417880883355      6.50749000529503
Au  7.03262034615616     10.58733857889242      6.98944575718394
Au  8.01124599792085     11.05355025985609      4.40924655014707
Au  5.24934805693116     11.28031951970388      4.89157775585319
Au  10.93059990039674      7.95205888546788      6.79972119536281
Au  6.32760006214525      8.74081862282881      4.41170364128530
Au  7.45875137928384      6.21175627790339      4.85512864665555
Au  9.04213111286871      8.41031546355611      4.81748640138557
Fe  6.67358087955393      7.70541435821960      6.97320478249302
*
