11
E=  -1136.19005777;c=0;m=3
Au      6.531280211204990      4.940021392542810      9.063228229891051
Au      6.000493517755320      6.822374851019230      7.063666195241430
Au      9.440713397090059      4.359548430936610      5.760848465768350
Au      8.664201793338551      3.451045460684270      8.298439292413979
Au      7.865507937251420      6.514387284055080      5.040025040816410
Au     10.914532528943759      5.108242722971170      8.204611063311900
Au     10.490881229273720      7.038284183064830      6.100906724224050
Au      8.244121944302560      8.633485602867490      6.951125785518380
Au      7.464418073710140      7.546208921959120      9.521643946536029
Au     10.151645039438501      7.681632029929360      8.886221256908771
Cr      8.478773417691009      6.007992559970020      7.608592449369660
