11
Coordinates from ORCA-job pbe E -2402.482789568934
  Au      6.531280      4.940021      9.063228
  Au      6.000494      6.822375      7.063666
  Au      9.440713      4.359548      5.760848
  Au      8.664202      3.451045      8.298439
  Au      7.865508      6.514387      5.040025
  Au     10.914533      5.108243      8.204611
  Au     10.490881      7.038284      6.100907
  Au      8.244122      8.633486      6.951126
  Au      7.464418      7.546209      9.521644
  Au     10.151645      7.681632      8.886221
  Cr      8.478773      6.007993      7.608592
11
Coordinates from ORCA-job pbe E -2402.483839391850
  Au      6.503516      4.928838      9.081893
  Au      5.978533      6.827367      7.046271
  Au      9.440675      4.348255      5.733504
  Au      8.669336      3.416526      8.306723
  Au      7.879903      6.540745      5.025549
  Au     10.940000      5.108754      8.218608
  Au     10.483432      7.034782      6.107020
  Au      8.244784      8.623734      6.952963
  Au      7.466620      7.563133      9.545722
  Au     10.163635      7.708709      8.869073
  Cr      8.476134      6.002379      7.611982
11
Coordinates from ORCA-job pbe E -2402.484151890877
  Au      6.504257      4.930447      9.081016
  Au      5.979615      6.819968      7.042230
  Au      9.432456      4.347469      5.731976
  Au      8.669839      3.417997      8.305696
  Au      7.891574      6.558377      5.021810
  Au     10.936244      5.110431      8.225729
  Au     10.484239      7.021718      6.111429
  Au      8.234654      8.617631      6.960176
  Au      7.472781      7.559051      9.550462
  Au     10.167448      7.723328      8.853458
  Cr      8.473462      5.996807      7.615325
11
Coordinates from ORCA-job pbe E -2402.484984815258
  Au      6.501162      4.932133      9.083878
  Au      5.984987      6.776182      7.015883
  Au      9.382447      4.345063      5.723111
  Au      8.670656      3.414481      8.303768
  Au      7.956015      6.651656      5.005746
  Au     10.915820      5.121992      8.269739
  Au     10.505816      6.955627      6.120285
  Au      8.174547      8.606809      6.997002
  Au      7.510264      7.535094      9.576179
  Au     10.186249      7.798452      8.769679
  Cr      8.458607      5.965734      7.634039
11
Coordinates from ORCA-job pbe E -2402.485074607197
  Au      6.497282      4.929470      9.089715
  Au      5.988585      6.765916      7.005458
  Au      9.369366      4.347159      5.721119
  Au      8.669916      3.407568      8.304533
  Au      7.966420      6.667819      5.005434
  Au     10.910890      5.129302      8.280959
  Au     10.515475      6.945905      6.117636
  Au      8.162536      8.612083      7.002862
  Au      7.522039      7.529777      9.579605
  Au     10.188089      7.807968      8.754679
  Cr      8.455972      5.960256      7.637308
11
Coordinates from ORCA-job pbe E -2402.485121179995
  Au      6.494193      4.928231      9.095788
  Au      5.991385      6.750874      6.994750
  Au      9.353955      4.348462      5.720145
  Au      8.669605      3.401167      8.304216
  Au      7.976435      6.682765      5.006125
  Au     10.904515      5.134647      8.295825
  Au     10.523109      6.941710      6.111216
  Au      8.156168      8.620528      7.006206
  Au      7.532759      7.522349      9.584096
  Au     10.190201      7.815971      8.741341
  Cr      8.454245      5.956518      7.639601
11
Coordinates from ORCA-job pbe E -2402.485133094569
  Au      6.495425      4.926903      9.098686
  Au      5.993777      6.745688      6.989608
  Au      9.348717      4.349541      5.719296
  Au      8.667525      3.399756      8.304066
  Au      7.976656      6.685905      5.006189
  Au     10.901870      5.138321      8.300829
  Au     10.524917      6.941605      6.111154
  Au      8.155690      8.621942      7.006954
  Au      7.536625      7.520576      9.584829
  Au     10.190894      7.815979      8.738477
  Cr      8.454474      5.957007      7.639219
11
Coordinates from ORCA-job pbe E -2402.485147535866
  Au      6.497650      4.926843      9.101542
  Au      5.995692      6.736740      6.984101
  Au      9.341775      4.350692      5.718160
  Au      8.665686      3.399300      8.302576
  Au      7.977636      6.690046      5.004432
  Au     10.898057      5.140666      8.308909
  Au     10.524637      6.940878      6.109314
  Au      8.156116      8.622767      7.008131
  Au      7.541023      7.518524      9.586480
  Au     10.192892      7.817939      8.737535
  Cr      8.455404      5.958829      7.638128
11
Coordinates from ORCA-job pbe E -2402.485164048501
  Au      6.501721      4.929301      9.106183
  Au      5.997416      6.723346      6.976531
  Au      9.331928      4.350839      5.715564
  Au      8.664160      3.399429      8.298255
  Au      7.978172      6.696717      4.999264
  Au     10.892497      5.143664      8.320910
  Au     10.523820      6.938500      6.110585
  Au      8.155842      8.621192      7.010115
  Au      7.546638      7.515953      9.589964
  Au     10.197127      7.821738      8.736175
  Cr      8.457247      5.962545      7.635762
11
Coordinates from ORCA-job pbe E -2402.485171175299
  Au      6.504098      4.931520      9.108369
  Au      5.997561      6.716519      6.972561
  Au      9.327101      4.351651      5.712690
  Au      8.663644      3.399879      8.294872
  Au      7.979725      6.699993      4.996416
  Au     10.890524      5.144537      8.327770
  Au     10.522864      6.933886      6.110970
  Au      8.153222      8.618890      7.012413
  Au      7.550294      7.516169      9.592223
  Au     10.199078      7.825266      8.736678
  Cr      8.458457      5.964912      7.634347
11
Coordinates from ORCA-job pbe E -2402.485175217207
  Au      6.505587      4.934179      9.110127
  Au      5.996796      6.712487      6.969881
  Au      9.323742      4.350692      5.710172
  Au      8.664032      3.400177      8.291550
  Au      7.981472      6.703214      4.994596
  Au     10.889533      5.145244      8.332521
  Au     10.524695      6.929416      6.112873
  Au      8.149089      8.617827      7.014444
  Au      7.552697      7.515912      9.594987
  Au     10.200020      7.828271      8.734453
  Cr      8.458907      5.965804      7.633705
11
Coordinates from ORCA-job pbe E -2402.485177808019
  Au      6.506410      4.936093      9.111252
  Au      5.996160      6.710457      6.967844
  Au      9.321464      4.350180      5.707781
  Au      8.664301      3.400167      8.288803
  Au      7.984312      6.705642      4.995174
  Au     10.889325      5.146047      8.336078
  Au     10.526932      6.924577      6.113651
  Au      8.144321      8.617510      7.016431
  Au      7.554875      7.515984      9.597442
  Au     10.199473      7.830657      8.731268
  Cr      8.458996      5.965908      7.633582
