13
Coordinates from ORCA-job pbe E -2674.154428547931
  Au     10.284111      5.033909      6.633091
  Au      8.590623      4.226630      8.954633
  Au      8.478813      6.891035     10.343320
  Au      6.206639      5.125333      7.902038
  Au      5.994582      7.274270      6.062334
  Au      7.921378      5.491516      5.459955
  Au      5.637499      9.790250      7.018288
  Au      6.412668      7.902199      8.974687
  Au      8.242006      8.979458      6.917344
  Au     10.545060      7.898725      7.315404
  Au     12.691017      6.224139      7.518758
  Au     10.823312      5.901026      9.463636
  Cr      8.382802      6.530407      7.783751
13
Coordinates from ORCA-job pbe E -2674.156309760215
  Au     10.305239      5.026140      6.630858
  Au      8.607394      4.225953      8.943688
  Au      8.489007      6.906529     10.362820
  Au      6.199067      5.143232      7.906874
  Au      5.984003      7.267289      6.070336
  Au      7.922241      5.495585      5.434246
  Au      5.586882      9.755976      7.025788
  Au      6.393681      7.915779      8.974404
  Au      8.224945      9.024674      6.906736
  Au     10.592181      7.910592      7.306076
  Au     12.693217      6.167221      7.543565
  Au     10.822724      5.885779      9.462922
  Cr      8.389928      6.544147      7.778923
13
Coordinates from ORCA-job pbe E -2674.157396480372
  Au     10.308311      5.019614      6.629445
  Au      8.612353      4.226041      8.930783
  Au      8.482186      6.925048     10.375408
  Au      6.199342      5.153660      7.916055
  Au      5.998392      7.247274      6.083171
  Au      7.936625      5.491280      5.416855
  Au      5.571634      9.732427      7.042594
  Au      6.387004      7.915124      8.978038
  Au      8.246849      9.046255      6.903942
  Au     10.595831      7.938273      7.291861
  Au     12.680395      6.136812      7.545948
  Au     10.795787      5.881479      9.458297
  Cr      8.395803      6.555610      7.774841
13
Coordinates from ORCA-job pbe E -2674.158330160551
  Au     10.301967      5.014922      6.623205
  Au      8.604891      4.215613      8.905146
  Au      8.461724      6.948960     10.392123
  Au      6.202194      5.156310      7.944379
  Au      6.037649      7.224204      6.104242
  Au      7.962268      5.476186      5.397019
  Au      5.592308      9.697472      7.059810
  Au      6.388487      7.910059      8.987626
  Au      8.266782      9.074354      6.907388
  Au     10.604297      7.963928      7.270313
  Au     12.636531      6.128508      7.543889
  Au     10.749249      5.890392      9.441685
  Cr      8.402163      6.567989      7.770414
13
Coordinates from ORCA-job pbe E -2674.158811890010
  Au     10.298912      4.998990      6.609636
  Au      8.590349      4.191015      8.878289
  Au      8.439950      6.961150     10.412928
  Au      6.198483      5.148451      7.982586
  Au      6.073031      7.201801      6.113372
  Au      7.978432      5.453281      5.379971
  Au      5.595576      9.708777      7.060408
  Au      6.381153      7.906792      9.007415
  Au      8.282884      9.101615      6.915362
  Au     10.613661      7.984089      7.246917
  Au     12.643949      6.135549      7.536246
  Au     10.708584      5.902505      9.436192
  Cr      8.405547      6.574881      7.767917
13
Coordinates from ORCA-job pbe E -2674.159210411585
  Au     10.308918      4.997818      6.608542
  Au      8.588738      4.174748      8.859501
  Au      8.435319      6.957518     10.421442
  Au      6.191741      5.149617      8.006443
  Au      6.096764      7.202062      6.121525
  Au      7.975433      5.443274      5.376047
  Au      5.608287      9.701962      7.054939
  Au      6.374332      7.913961      9.006477
  Au      8.285153      9.107435      6.928922
  Au     10.613610      7.981341      7.232915
  Au     12.632387      6.145189      7.540698
  Au     10.692845      5.916297      9.422981
  Cr      8.406984      6.577674      7.766805
13
Coordinates from ORCA-job pbe E -2674.159599732128
  Au     10.318646      4.996904      6.605082
  Au      8.596034      4.155596      8.827258
  Au      8.417497      6.951174     10.426621
  Au      6.180974      5.162608      8.040555
  Au      6.130936      7.205799      6.134142
  Au      7.979548      5.423126      5.379615
  Au      5.606102      9.698114      7.047895
  Au      6.367762      7.922590      9.006976
  Au      8.280695      9.115906      6.950149
  Au     10.617548      7.970862      7.213351
  Au     12.632603      6.145508      7.549070
  Au     10.672274      5.937391      9.401943
  Cr      8.409894      6.583317      7.764583
13
Coordinates from ORCA-job pbe E -2674.159878028000
  Au     10.335052      4.995089      6.603730
  Au      8.601731      4.139537      8.789597
  Au      8.394185      6.937669     10.430373
  Au      6.175468      5.177625      8.078020
  Au      6.163204      7.211439      6.143787
  Au      7.980994      5.397033      5.388949
  Au      5.595386      9.705510      7.041729
  Au      6.356623      7.934519      9.005137
  Au      8.278456      9.120226      6.972491
  Au     10.616234      7.959788      7.194191
  Au     12.645656      6.142798      7.553635
  Au     10.655233      5.959713      9.382935
  Cr      8.412290      6.587951      7.762664
13
Coordinates from ORCA-job pbe E -2674.160012469136
  Au     10.343563      4.994322      6.600478
  Au      8.606124      4.135315      8.764778
  Au      8.376756      6.923162     10.429747
  Au      6.176198      5.190723      8.099597
  Au      6.177973      7.214232      6.146711
  Au      7.981389      5.377916      5.401462
  Au      5.587770      9.711641      7.038241
  Au      6.350296      7.943257      9.004373
  Au      8.276750      9.122407      6.983793
  Au     10.615268      7.954442      7.184764
  Au     12.657893      6.140433      7.554568
  Au     10.647521      5.971063      9.376754
  Cr      8.413010      6.589982      7.761971
13
Coordinates from ORCA-job pbe E -2674.160123260882
  Au     10.355867      4.995536      6.596993
  Au      8.611981      4.134018      8.740302
  Au      8.356861      6.903035     10.426621
  Au      6.180247      5.204082      8.118920
  Au      6.185509      7.214641      6.143830
  Au      7.977385      5.356349      5.417832
  Au      5.580591      9.722424      7.034844
  Au      6.347305      7.953354      9.007258
  Au      8.278112      9.124861      6.990641
  Au     10.614606      7.950667      7.177645
  Au     12.662683      6.139918      7.555990
  Au     10.645376      5.979703      9.374790
  Cr      8.413990      6.590309      7.761572
13
Coordinates from ORCA-job pbe E -2674.160223817639
  Au     10.365242      4.997605      6.585222
  Au      8.617055      4.134146      8.710705
  Au      8.332548      6.872584     10.423711
  Au      6.184071      5.223210      8.142265
  Au      6.191755      7.216419      6.140783
  Au      7.970649      5.328934      5.442306
  Au      5.584155      9.720728      7.031961
  Au      6.342793      7.970907      9.005562
  Au      8.278136      9.129137      6.997140
  Au     10.613922      7.952994      7.169514
  Au     12.675323      6.142168      7.555186
  Au     10.641829      5.988134      9.381630
  Cr      8.413035      6.591931      7.761253
13
Coordinates from ORCA-job pbe E -2674.160330812423
  Au     10.370592      5.002303      6.579227
  Au      8.622515      4.131433      8.695847
  Au      8.321937      6.855292     10.422678
  Au      6.184350      5.231781      8.155018
  Au      6.195281      7.212024      6.136673
  Au      7.966262      5.313759      5.453902
  Au      5.587528      9.721245      7.028710
  Au      6.345523      7.979168      9.009561
  Au      8.282696      9.135108      6.998230
  Au     10.616270      7.955595      7.165055
  Au     12.664896      6.145979      7.557551
  Au     10.638031      5.991960      9.384011
  Cr      8.414629      6.593248      7.760777
13
Coordinates from ORCA-job pbe E -2674.160419031949
  Au     10.377261      5.011112      6.569562
  Au      8.629092      4.125515      8.677025
  Au      8.305025      6.832027     10.422405
  Au      6.182736      5.242386      8.172104
  Au      6.197666      7.207250      6.131946
  Au      7.952088      5.294942      5.467227
  Au      5.598415      9.715110      7.024189
  Au      6.354934      7.990315      9.013677
  Au      8.288921      9.141713      6.996789
  Au     10.618822      7.962445      7.159454
  Au     12.653861      6.153459      7.564344
  Au     10.635131      5.996382      9.389354
  Cr      8.416560      6.596239      7.759161
13
Coordinates from ORCA-job pbe E -2674.160456787016
  Au     10.377106      5.020464      6.560765
  Au      8.633191      4.121973      8.658686
  Au      8.298348      6.807294     10.425329
  Au      6.182490      5.252625      8.189175
  Au      6.201032      7.204229      6.129235
  Au      7.947313      5.275910      5.480196
  Au      5.600630      9.712353      7.016667
  Au      6.359404      8.002346      9.013826
  Au      8.292809      9.147470      6.996151
  Au     10.621491      7.966916      7.157439
  Au     12.647291      6.157579      7.569632
  Au     10.630663      5.999477      9.391885
  Cr      8.418746      6.600259      7.758252
13
Coordinates from ORCA-job pbe E -2674.160501363820
  Au     10.379364      5.029625      6.553745
  Au      8.635867      4.119243      8.640335
  Au      8.285816      6.787905     10.426854
  Au      6.184211      5.262384      8.205533
  Au      6.205022      7.200725      6.129460
  Au      7.936495      5.260054      5.490120
  Au      5.601932      9.708470      7.011523
  Au      6.367986      8.010832      9.014407
  Au      8.294172      9.151519      6.993110
  Au     10.624671      7.971690      7.156092
  Au     12.648621      6.158758      7.576341
  Au     10.625217      6.002479      9.393427
  Cr      8.421137      6.605214      7.756291
13
Coordinates from ORCA-job pbe E -2674.160565834195
  Au     10.378550      5.050158      6.543362
  Au      8.636522      4.116550      8.618308
  Au      8.268991      6.758016     10.432188
  Au      6.188367      5.273196      8.226151
  Au      6.206562      7.195142      6.130606
  Au      7.919192      5.236010      5.502408
  Au      5.601066      9.703496      7.003716
  Au      6.387648      8.023196      9.013439
  Au      8.297237      9.154232      6.980387
  Au     10.629173      7.981891      7.162201
  Au     12.651620      6.159024      7.586301
  Au     10.619406      6.002867      9.395565
  Cr      8.426176      6.615118      7.752607
13
Coordinates from ORCA-job pbe E -2674.160581199082
  Au     10.378527      5.062460      6.536723
  Au      8.637313      4.115562      8.605520
  Au      8.259137      6.738546     10.434710
  Au      6.190880      5.279923      8.237971
  Au      6.209610      7.190301      6.132132
  Au      7.911366      5.219803      5.511585
  Au      5.599564      9.702389      6.999808
  Au      6.398173      8.032109      9.013105
  Au      8.297981      9.156985      6.973050
  Au     10.633230      7.986845      7.166174
  Au     12.651785      6.158996      7.590731
  Au     10.613290      6.003301      9.395526
  Cr      8.429657      6.621677      7.750204
13
Coordinates from ORCA-job pbe E -2674.160586288911
  Au     10.376881      5.065461      6.535536
  Au      8.638690      4.116240      8.608510
  Au      8.258421      6.735323     10.435347
  Au      6.189738      5.279742      8.235017
  Au      6.208137      7.189711      6.132626
  Au      7.910166      5.217555      5.512764
  Au      5.600147      9.702900      6.999572
  Au      6.401515      8.033065      9.013432
  Au      8.299627      9.155515      6.969200
  Au     10.632206      7.989009      7.169642
  Au     12.651024      6.159824      7.590435
  Au     10.613697      6.001604      9.395367
  Cr      8.430263      6.622947      7.749788
13
Coordinates from ORCA-job pbe E -2674.160589920142
  Au     10.378693      5.068104      6.532246
  Au      8.639821      4.116648      8.604628
  Au      8.253318      6.726391     10.434748
  Au      6.190472      5.282549      8.237938
  Au      6.209125      7.188947      6.132818
  Au      7.907363      5.210251      5.518758
  Au      5.600781      9.703451      6.998261
  Au      6.403353      8.037509      9.014530
  Au      8.300050      9.156724      6.967313
  Au     10.633251      7.990370      7.170493
  Au     12.650703      6.161207      7.591154
  Au     10.612525      6.002127      9.395225
  Cr      8.431056      6.624618      7.749125
13
Coordinates from ORCA-job pbe E -2674.160592308544
  Au     10.380129      5.068446      6.529521
  Au      8.641136      4.117164      8.602148
  Au      8.248966      6.719820     10.433529
  Au      6.190550      5.284918      8.239304
  Au      6.211206      7.188644      6.133526
  Au      7.905325      5.204748      5.524037
  Au      5.602130      9.703257      6.997530
  Au      6.403837      8.040226      9.016417
  Au      8.300819      9.158173      6.966203
  Au     10.633887      7.991863      7.170465
  Au     12.650105      6.162695      7.591541
  Au     10.610987      6.003159      9.394377
  Cr      8.431434      6.625781      7.748642
13
Coordinates from ORCA-job pbe E -2674.160592930914
  Au     10.380516      5.068344      6.529001
  Au      8.641276      4.117265      8.601458
  Au      8.247845      6.717612     10.433177
  Au      6.190495      5.285474      8.239666
  Au      6.211970      7.189132      6.133455
  Au      7.904219      5.203071      5.525725
  Au      5.602525      9.703047      6.997305
  Au      6.403902      8.040707      9.016902
  Au      8.301194      9.158596      6.965697
  Au     10.633953      7.992620      7.170535
  Au     12.650208      6.163144      7.591690
  Au     10.610975      6.003810      9.394097
  Cr      8.431435      6.626076      7.748529
