15
E=  -1599.71737480;c=0;m=5
Au      7.715251498977420     10.423105845037130      8.562936194835601
Au      4.901484053170450      7.516016078749060      6.383305067968200
Au      6.377287976328430     10.040584482015690      6.057459484157310
Au      6.846655125185840      5.541790130337830      6.839187818179570
Au      6.821694984258350      8.484895788193970     10.394597456955269
Au      4.937156979556730      9.413298959872700      8.476650218132150
Au      7.334098299509950      5.902508355578350      9.608821680429100
Au      9.202673280123610      5.493733611531790      5.197519071504830
Au      7.312998018239180      7.594435484022760      4.910106956374250
Au      9.460279343437930      5.202947144776650      7.970412997825850
Au     10.918051693629231      7.317667208268760      6.774476552958900
Au      9.138723090250910      9.472995131838299      6.373193826581270
Au      9.975540241066460      8.002798779298280      4.166037584995080
Au      9.343956222671039      8.011426268009730      8.984725845446709
Fe      7.012771633594490      7.984923672469040      7.806782483655950
