11
Coordinates from ORCA-job pbe E -2402.450745366383
  Au      9.897034      7.413471     10.541929
  Au      7.477200      5.518530     10.785490
  Au     10.307514      4.738629     10.697888
  Au      8.529715      3.376372      9.069371
  Au      6.080107      7.870791     10.343783
  Au      8.522700      9.517370      9.515994
  Au      9.084910      8.129017      6.847447
  Au      9.900785      5.723215      7.959224
  Au      6.092850      7.657069      7.290888
  Au      6.884752      5.110475      7.785202
  Cr      7.971131      7.163945      8.868222
11
Coordinates from ORCA-job pbe E -2402.452467966366
  Au      9.911021      7.401179     10.552743
  Au      7.481667      5.516361     10.783131
  Au     10.274869      4.758335     10.671534
  Au      8.530157      3.423036      9.073097
  Au      6.069301      7.845890     10.375613
  Au      8.530807      9.540000      9.524216
  Au      9.116567      8.107616      6.830813
  Au      9.899151      5.721008      7.963386
  Au      6.073599      7.659037      7.274318
  Au      6.887846      5.087593      7.786398
  Cr      7.973715      7.158830      8.870188
11
Coordinates from ORCA-job pbe E -2402.453680182655
  Au      9.925541      7.433712     10.566722
  Au      7.472602      5.516205     10.793535
  Au     10.281477      4.753694     10.677417
  Au      8.530910      3.412744      9.073205
  Au      6.051947      7.817545     10.416750
  Au      8.544215      9.568407      9.537275
  Au      9.156710      8.084531      6.806379
  Au      9.907747      5.722790      7.952395
  Au      6.047643      7.658922      7.251978
  Au      6.858153      5.087399      7.760726
  Cr      7.971752      7.162937      8.869056
11
Coordinates from ORCA-job pbe E -2402.454160681314
  Au      9.924609      7.454456     10.566479
  Au      7.475636      5.511393     10.795005
  Au     10.272052      4.780898     10.671874
  Au      8.516272      3.436135      9.062598
  Au      6.050223      7.791045     10.439217
  Au      8.558204      9.563373      9.548574
  Au      9.180641      8.061156      6.799784
  Au      9.909729      5.717585      7.954590
  Au      6.044594      7.640654      7.248139
  Au      6.844704      5.099737      7.749638
  Cr      7.972033      7.162452      8.869541
11
Coordinates from ORCA-job pbe E -2402.454357185603
  Au      9.924142      7.467609     10.566063
  Au      7.480463      5.502933     10.797960
  Au     10.267474      4.794841     10.669185
  Au      8.507592      3.448181      9.056265
  Au      6.049960      7.771926     10.453590
  Au      8.557546      9.564970      9.547687
  Au      9.196477      8.044172      6.796803
  Au      9.913358      5.708853      7.958001
  Au      6.044157      7.641891      7.247771
  Au      6.837128      5.107322      7.743298
  Cr      7.970401      7.166185      8.868814
11
Coordinates from ORCA-job pbe E -2402.454633036366
  Au      9.921976      7.485220     10.563551
  Au      7.490581      5.486546     10.802130
  Au     10.264449      4.814184     10.668156
  Au      8.496434      3.460491      9.048406
  Au      6.051433      7.736687     10.476958
  Au      8.545568      9.572424      9.536760
  Au      9.223097      8.012895      6.794307
  Au      9.918631      5.691778      7.965404
  Au      6.045121      7.660937      7.249685
  Au      6.826201      5.120857      7.734053
  Cr      7.965206      7.176864      8.866026
11
Coordinates from ORCA-job pbe E -2402.454804814005
  Au      9.916708      7.499178     10.558410
  Au      7.502997      5.472992     10.802811
  Au     10.265350      4.816910     10.668999
  Au      8.489778      3.462399      9.044202
  Au      6.051989      7.710974     10.492822
  Au      8.529605      9.581996      9.522109
  Au      9.241519      7.990985      6.793148
  Au      9.920546      5.677092      7.975580
  Au      6.047312      7.683578      7.252930
  Au      6.823193      5.133326      7.731403
  Cr      7.959701      7.189455      8.863023
11
Coordinates from ORCA-job pbe E -2402.454926360309
  Au      9.910203      7.499827     10.551796
  Au      7.513193      5.465532     10.798480
  Au     10.273583      4.821379     10.675803
  Au      8.487808      3.454600      9.043703
  Au      6.051346      7.691014     10.504959
  Au      8.517405      9.590672      9.509885
  Au      9.255740      7.975054      6.792299
  Au      9.916654      5.668054      7.984683
  Au      6.047354      7.706383      7.254558
  Au      6.821972      5.145228      7.730069
  Cr      7.953441      7.201142      8.859203
11
Coordinates from ORCA-job pbe E -2402.455063063752
  Au      9.900333      7.503579     10.542738
  Au      7.528768      5.461439     10.789050
  Au     10.280234      4.809731     10.679950
  Au      8.486876      3.444906      9.044613
  Au      6.047145      7.674697     10.516029
  Au      8.508549      9.602791      9.499283
  Au      9.268500      7.964326      6.789592
  Au      9.907899      5.661285      7.999613
  Au      6.044873      7.723161      7.254100
  Au      6.828738      5.156694      7.735194
  Cr      7.946783      7.216275      8.855276
11
Coordinates from ORCA-job pbe E -2402.455272942326
  Au      9.887043      7.499285     10.530404
  Au      7.550228      5.462731     10.769935
  Au     10.292655      4.798177     10.688381
  Au      8.488019      3.428396      9.047923
  Au      6.038359      7.652785     10.532356
  Au      8.508050      9.620076      9.492667
  Au      9.287657      7.952017      6.784391
  Au      9.888653      5.657864      8.021193
  Au      6.034643      7.737654      7.247967
  Au      6.837616      5.171093      7.741779
  Cr      7.935776      7.238808      8.848442
11
Coordinates from ORCA-job pbe E -2402.455637577868
  Au      9.867238      7.492425     10.511879
  Au      7.589267      5.469869     10.733763
  Au     10.312037      4.777695     10.700697
  Au      8.488488      3.403742      9.052737
  Au      6.020518      7.616091     10.559215
  Au      8.521883      9.650007      9.492081
  Au      9.321639      7.934427      6.775123
  Au      9.851438      5.655574      8.060348
  Au      6.009476      7.745387      7.231117
  Au      6.851783      5.191655      7.753236
  Cr      7.914931      7.282012      8.835243
11
Coordinates from ORCA-job pbe E -2402.456151260290
  Au      9.852719      7.486075     10.497182
  Au      7.628504      5.483042     10.695702
  Au     10.330548      4.757887     10.711517
  Au      8.487572      3.381941      9.056480
  Au      6.000966      7.579222     10.583697
  Au      8.551552      9.680096      9.504657
  Au      9.357398      7.919188      6.766809
  Au      9.811357      5.657931      8.099188
  Au      5.975617      7.734118      7.206707
  Au      6.861410      5.207237      7.764075
  Cr      7.891057      7.332147      8.819423
11
Coordinates from ORCA-job pbe E -2402.457036426979
  Au      9.851548      7.479659     10.492654
  Au      7.658537      5.503764     10.662328
  Au     10.344349      4.741419     10.718179
  Au      8.486134      3.368465      9.058754
  Au      5.978961      7.556555     10.597595
  Au      8.605446      9.701992      9.541465
  Au      9.385924      7.916931      6.758140
  Au      9.775589      5.668623      8.127991
  Au      5.933923      7.687376      7.173308
  Au      6.861361      5.209475      7.773147
  Cr      7.866927      7.384625      8.801878
11
Coordinates from ORCA-job pbe E -2402.458611712324
  Au      9.866236      7.477431     10.499215
  Au      7.673987      5.524098     10.645163
  Au     10.353078      4.733480     10.720743
  Au      8.477427      3.376373      9.054013
  Au      5.961297      7.539011     10.599024
  Au      8.668497      9.713190      9.593023
  Au      9.407485      7.915223      6.753189
  Au      9.756138      5.682128      8.140108
  Au      5.891232      7.617992      7.137144
  Au      6.849872      5.200557      7.780642
  Cr      7.843450      7.439402      8.783174
11
Coordinates from ORCA-job pbe E -2402.461989364790
  Au      9.890053      7.470813     10.514664
  Au      7.671211      5.541929     10.655835
  Au     10.374808      4.746170     10.735503
  Au      8.440161      3.419505      9.023944
  Au      5.949513      7.533118     10.595170
  Au      8.732710      9.714744      9.654410
  Au      9.417527      7.908535      6.744844
  Au      9.764606      5.700827      8.135149
  Au      5.841655      7.525109      7.093177
  Au      6.830861      5.195193      7.776131
  Cr      7.835594      7.462940      8.776611
11
Coordinates from ORCA-job pbe E -2402.463882689560
  Au      9.906139      7.463610     10.521154
  Au      7.679321      5.559123     10.656114
  Au     10.398807      4.762673     10.751621
  Au      8.405811      3.452445      8.999391
  Au      5.937619      7.514483     10.596721
  Au      8.795317      9.719128      9.716121
  Au      9.437427      7.895088      6.736699
  Au      9.763119      5.714625      8.140268
  Au      5.790810      7.443733      7.048675
  Au      6.812053      5.196702      7.773697
  Cr      7.822276      7.497274      8.764977
11
Coordinates from ORCA-job pbe E -2402.465321848926
  Au      9.914629      7.439217     10.524429
  Au      7.698337      5.571048     10.651293
  Au     10.429523      4.763987     10.773585
  Au      8.393525      3.467078      8.987098
  Au      5.915491      7.505640     10.589801
  Au      8.861257      9.726566      9.766445
  Au      9.446991      7.894003      6.727208
  Au      9.755404      5.721999      8.157637
  Au      5.728659      7.391296      7.001859
  Au      6.806913      5.191730      7.777699
  Cr      7.797969      7.546319      8.748384
11
Coordinates from ORCA-job pbe E -2402.462218432701
  Au      9.890503      7.382689     10.508406
  Au      7.730339      5.546355     10.650902
  Au     10.452865      4.746091     10.799217
  Au      8.453152      3.397496      9.026929
  Au      5.895286      7.532785     10.547284
  Au      8.846074      9.723213      9.727233
  Au      9.400366      7.934072      6.719590
  Au      9.758144      5.690855      8.191659
  Au      5.696126      7.545787      6.998680
  Au      6.855548      5.148137      7.805078
  Cr      7.770296      7.571404      8.730459
11
Coordinates from ORCA-job pbe E -2402.467176854655
  Au      9.904250      7.405590     10.511112
  Au      7.726192      5.567755     10.634154
  Au     10.445580      4.769057     10.792451
  Au      8.435481      3.428353      9.017988
  Au      5.902138      7.478121     10.569732
  Au      8.904778      9.720829      9.781022
  Au      9.444469      7.889754      6.728057
  Au      9.738595      5.710264      8.186657
  Au      5.681853      7.434981      6.982171
  Au      6.811990      5.193623      7.785424
  Cr      7.753373      7.620558      8.716669
11
Coordinates from ORCA-job pbe E -2402.467552333733
  Au      9.900737      7.420398     10.503510
  Au      7.747468      5.574790     10.615173
  Au     10.458586      4.778846     10.808026
  Au      8.387238      3.426271      8.981447
  Au      5.910537      7.408976     10.595856
  Au      8.914931      9.756554      9.781753
  Au      9.485908      7.834973      6.737029
  Au      9.717636      5.714652      8.208249
  Au      5.667252      7.402912      6.976606
  Au      6.822126      5.232464      7.791059
  Cr      7.736278      7.668049      8.706729
11
Coordinates from ORCA-job pbe E -2402.468422809230
  Au      9.911763      7.424022     10.507675
  Au      7.752166      5.563429     10.616388
  Au     10.455920      4.796283     10.811639
  Au      8.388418      3.407370      8.981286
  Au      5.903274      7.420439     10.568899
  Au      8.936947      9.742544      9.798210
  Au      9.466566      7.852812      6.736106
  Au      9.718061      5.701167      8.209463
  Au      5.664911      7.395959      6.981427
  Au      6.823973      5.226191      7.795982
  Cr      7.726700      7.688670      8.698361
11
Coordinates from ORCA-job pbe E -2402.469092855714
  Au      9.908710      7.438637     10.503377
  Au      7.773661      5.541568     10.607771
  Au     10.466796      4.810434     10.824390
  Au      8.370280      3.357270      8.958468
  Au      5.897376      7.407021     10.556985
  Au      8.930201      9.763935      9.780419
  Au      9.466610      7.845374      6.742516
  Au      9.705456      5.675789      8.230321
  Au      5.665884      7.431398      6.997455
  Au      6.851337      5.230860      7.812715
  Cr      7.712387      7.716598      8.691021
11
Coordinates from ORCA-job pbe E -2402.469392899910
  Au      9.919795      7.460036     10.509820
  Au      7.769489      5.530903     10.608563
  Au     10.466544      4.855019     10.829212
  Au      8.338438      3.320290      8.926674
  Au      5.905733      7.393420     10.539119
  Au      8.941106      9.774188      9.787391
  Au      9.462059      7.834831      6.752755
  Au      9.704374      5.662020      8.229169
  Au      5.674788      7.425910      7.016857
  Au      6.858099      5.230562      7.818032
  Cr      7.708273      7.731705      8.687845
11
Coordinates from ORCA-job pbe E -2402.469350440340
  Au      9.904903      7.469031     10.496553
  Au      7.803286      5.519232     10.574854
  Au     10.482679      4.859410     10.837345
  Au      8.326673      3.280157      8.912146
  Au      5.901784      7.377722     10.540141
  Au      8.955715      9.802385      9.784157
  Au      9.484462      7.829817      6.770022
  Au      9.668970      5.640434      8.265133
  Au      5.667939      7.406938      7.024215
  Au      6.863526      5.260346      7.824228
  Cr      7.688761      7.773412      8.676643
11
Coordinates from ORCA-job pbe E -2402.469936833817
  Au      9.897663      7.487019     10.495112
  Au      7.798304      5.510691     10.583807
  Au     10.492977      4.882117     10.845933
  Au      8.302996      3.292267      8.896634
  Au      5.908784      7.357918     10.562172
  Au      8.939580      9.810844      9.774846
  Au      9.501929      7.805745      6.766911
  Au      9.684804      5.636645      8.261280
  Au      5.665646      7.437515      7.023059
  Au      6.853374      5.255219      7.809739
  Cr      7.702641      7.742905      8.685943
11
Coordinates from ORCA-job pbe E -2402.470284394697
  Au      9.882244      7.506670     10.486202
  Au      7.809096      5.493471     10.574310
  Au     10.518313      4.927350     10.867461
  Au      8.264731      3.279022      8.867042
  Au      5.920081      7.329796     10.575134
  Au      8.935342      9.830259      9.767458
  Au      9.524382      7.779343      6.778519
  Au      9.683494      5.618240      8.273605
  Au      5.658581      7.462157      7.029060
  Au      6.843769      5.261393      7.796878
  Cr      7.708666      7.731184      8.689769
11
Coordinates from ORCA-job pbe E -2402.470585638038
  Au      9.864579      7.530493     10.474475
  Au      7.826027      5.469573     10.559666
  Au     10.545786      4.977372     10.892882
  Au      8.225743      3.260106      8.834910
  Au      5.934432      7.301696     10.585914
  Au      8.927775      9.852068      9.756525
  Au      9.548102      7.754495      6.795912
  Au      9.678002      5.590044      8.290139
  Au      5.654415      7.488873      7.039628
  Au      6.828672      5.271466      7.781995
  Cr      7.715164      7.722698      8.693393
11
Coordinates from ORCA-job pbe E -2402.470806455870
  Au      9.849826      7.552189     10.463597
  Au      7.843996      5.445821     10.545228
  Au     10.573542      5.024465     10.919319
  Au      8.186551      3.238880      8.800581
  Au      5.950268      7.281725     10.588201
  Au      8.917416      9.872042      9.744471
  Au      9.565296      7.736170      6.818026
  Au      9.670788      5.560717      8.304845
  Au      5.653849      7.509417      7.052550
  Au      6.813979      5.280892      7.770803
  Cr      7.723187      7.716566      8.697818
11
Coordinates from ORCA-job pbe E -2402.470890817108
  Au      9.843411      7.570182     10.457551
  Au      7.858851      5.425233     10.538099
  Au     10.595239      5.060461     10.939931
  Au      8.153196      3.223428      8.770637
  Au      5.962181      7.269297     10.586010
  Au      8.904877      9.885447      9.733145
  Au      9.576862      7.726085      6.835790
  Au      9.667305      5.533788      8.315599
  Au      5.654409      7.523717      7.062616
  Au      6.802091      5.287505      7.764583
  Cr      7.730275      7.713739      8.701476
11
Coordinates from ORCA-job pbe E -2402.470916263909
  Au      9.845993      7.568025     10.458729
  Au      7.856823      5.426872     10.540859
  Au     10.597160      5.055911     10.940445
  Au      8.154693      3.223776      8.770620
  Au      5.964002      7.275981     10.580923
  Au      8.899141      9.882413      9.730234
  Au      9.574467      7.730878      6.840526
  Au      9.667732      5.534717      8.310719
  Au      5.656254      7.520705      7.063061
  Au      6.799447      5.287495      7.766484
  Cr      7.732986      7.712111      8.702837
11
Coordinates from ORCA-job pbe E -2402.470932151610
  Au      9.850622      7.567004     10.460150
  Au      7.857990      5.426924     10.544045
  Au     10.597903      5.051076     10.939475
  Au      8.155393      3.226417      8.771834
  Au      5.963049      7.279029     10.577210
  Au      8.895343      9.877520      9.728223
  Au      9.575904      7.736465      6.843116
  Au      9.667887      5.533290      8.309060
  Au      5.653440      7.518836      7.060424
  Au      6.798694      5.287126      7.770254
  Cr      7.732473      7.715196      8.701646
11
Coordinates from ORCA-job pbe E -2402.470940245631
  Au      9.851338      7.566272     10.459450
  Au      7.859679      5.427146     10.544505
  Au     10.599454      5.050466     10.938704
  Au      8.153791      3.227255      8.771808
  Au      5.963919      7.277696     10.576834
  Au      8.891628      9.876544      9.725093
  Au      9.580931      7.737768      6.847139
  Au      9.666744      5.532565      8.309338
  Au      5.651247      7.519115      7.059546
  Au      6.797265      5.288781      7.771940
  Cr      7.732703      7.715277      8.701082
11
Coordinates from ORCA-job pbe E -2402.470954012560
  Au      9.853116      7.566163     10.456824
  Au      7.864207      5.427505     10.545298
  Au     10.604094      5.052491     10.937118
  Au      8.149219      3.227135      8.772307
  Au      5.964930      7.272200     10.574131
  Au      8.886873      9.873364      9.720286
  Au      9.595703      7.741200      6.858498
  Au      9.662707      5.530418      8.309050
  Au      5.643480      7.519534      7.057413
  Au      6.792198      5.292153      7.776295
  Cr      7.732170      7.716719      8.698219
11
Coordinates from ORCA-job pbe E -2402.470962170468
  Au      9.854305      7.567649     10.454611
  Au      7.867646      5.427224     10.547199
  Au     10.606693      5.055866     10.936003
  Au      8.144277      3.226750      8.771321
  Au      5.964657      7.265824     10.571961
  Au      8.884097      9.873636      9.716920
  Au      9.607550      7.743042      6.866162
  Au      9.660312      5.527497      8.308149
  Au      5.639202      7.520363      7.057933
  Au      6.787855      5.294326      7.779107
  Cr      7.732104      7.716707      8.696073
11
Coordinates from ORCA-job pbe E -2402.470979774366
  Au      9.856341      7.570952     10.448416
  Au      7.875334      5.427540     10.551887
  Au     10.613536      5.062567     10.933793
  Au      8.134879      3.224969      8.770245
  Au      5.961688      7.252392     10.562575
  Au      8.881554      9.874208      9.711276
  Au      9.632937      7.749535      6.885077
  Au      9.653241      5.520743      8.303983
  Au      5.629764      7.521614      7.060628
  Au      6.777984      5.297150      7.787070
  Cr      7.731441      7.717214      8.690486
11
Coordinates from ORCA-job pbe E -2402.471022900641
  Au      9.861216      7.575642     10.433732
  Au      7.892373      5.429993     10.564884
  Au     10.627664      5.074340     10.926583
  Au      8.117125      3.222568      8.771392
  Au      5.951232      7.224164     10.535778
  Au      8.878032      9.876146      9.699011
  Au      9.686709      7.768648      6.929118
  Au      9.637395      5.505514      8.291646
  Au      5.611131      7.523801      7.069298
  Au      6.755443      5.300737      7.806271
  Cr      7.730378      7.717331      8.677724
11
Coordinates from ORCA-job pbe E -2402.471155762006
  Au      9.870488      7.581924     10.404933
  Au      7.922023      5.438758     10.590171
  Au     10.650638      5.089138     10.908162
  Au      8.089492      3.220255      8.780756
  Au      5.927457      7.174338     10.479472
  Au      8.875987      9.879020      9.677276
  Au      9.779272      7.809656      7.014297
  Au      9.607638      5.480219      8.265130
  Au      5.580465      7.525934      7.088001
  Au      6.716243      5.304127      7.843689
  Cr      7.728996      7.715515      8.653553
11
Coordinates from ORCA-job pbe E -2402.471450909175
  Au      9.879523      7.585858     10.372578
  Au      7.944879      5.453937     10.617083
  Au     10.667791      5.097388     10.878494
  Au      8.071257      3.220331      8.800347
  Au      5.892692      7.126391     10.409709
  Au      8.882144      9.885746      9.653818
  Au      9.861070      7.848726      7.110868
  Au      9.577134      5.466197      8.227964
  Au      5.559174      7.530551      7.118575
  Au      6.681768      5.298752      7.882469
  Cr      7.731266      7.705007      8.633534
11
Coordinates from ORCA-job pbe E -2402.471656062909
  Au      9.889040      7.589527     10.339749
  Au      7.968866      5.469926     10.643189
  Au     10.685196      5.105357     10.848727
  Au      8.052657      3.220787      8.819994
  Au      5.859619      7.078628     10.337823
  Au      8.888672      9.891738      9.629103
  Au      9.936500      7.888410      7.212094
  Au      9.546107      5.450926      8.191680
  Au      5.539411      7.535206      7.148540
  Au      6.648398      5.294428      7.921370
  Cr      7.734232      7.693951      8.613168
11
Coordinates from ORCA-job pbe E -2402.471714768045
  Au      9.898614      7.583791     10.328681
  Au      7.973718      5.490446     10.662691
  Au     10.685348      5.094918     10.826586
  Au      8.061228      3.229482      8.837789
  Au      5.835759      7.057612     10.300008
  Au      8.898622      9.890227      9.618065
  Au      9.973399      7.911232      7.260422
  Au      9.529942      5.453813      8.164009
  Au      5.525075      7.532197      7.160022
  Au      6.631929      5.287902      7.944703
  Cr      7.735065      7.687264      8.602463
11
Coordinates from ORCA-job pbe E -2402.471777360792
  Au      9.902108      7.579486     10.336693
  Au      7.964665      5.500810     10.666483
  Au     10.674372      5.082087     10.822283
  Au      8.077849      3.235602      8.841702
  Au      5.831934      7.062196     10.304913
  Au      8.903328      9.887382      9.617679
  Au      9.972308      7.911144      7.252793
  Au      9.530120      5.464663      8.155502
  Au      5.522165      7.527491      7.157805
  Au      6.634107      5.282205      7.944966
  Cr      7.735742      7.685818      8.604618
11
Coordinates from ORCA-job pbe E -2402.471852712834
  Au      9.905253      7.584760     10.337640
  Au      7.963149      5.508222     10.670011
  Au     10.667753      5.081558     10.816951
  Au      8.080325      3.234485      8.841285
  Au      5.828253      7.054205     10.298396
  Au      8.905918      9.890571      9.604147
  Au      9.987273      7.915729      7.273399
  Au      9.521461      5.466017      8.141020
  Au      5.518532      7.527738      7.168788
  Au      6.630096      5.275170      7.947952
  Cr      7.740685      7.680429      8.605849
11
Coordinates from ORCA-job pbe E -2402.472024120913
  Au      9.910785      7.595428     10.343473
  Au      7.960122      5.526844     10.675741
  Au     10.654174      5.084113     10.801069
  Au      8.090959      3.231568      8.844173
  Au      5.813916      7.037617     10.279002
  Au      8.922712      9.898965      9.566793
  Au     10.026367      7.932334      7.333888
  Au      9.495873      5.464252      8.101818
  Au      5.505430      7.524859      7.200977
  Au      6.616907      5.253598      7.948757
  Cr      7.751452      7.669306      8.609745
11
Coordinates from ORCA-job pbe E -2402.472174918207
  Au      9.910753      7.606313     10.360647
  Au      7.956826      5.539848     10.672041
  Au     10.643586      5.086054     10.787159
  Au      8.096157      3.227956      8.847546
  Au      5.801157      7.028739     10.270511
  Au      8.944003      9.906047      9.530319
  Au     10.053381      7.945033      7.377874
  Au      9.477736      5.462922      8.072166
  Au      5.492276      7.515840      7.230226
  Au      6.613742      5.235447      7.938054
  Cr      7.759081      7.664685      8.618895
11
Coordinates from ORCA-job pbe E -2402.472355217049
  Au      9.901510      7.618264     10.392681
  Au      7.950889      5.541186     10.655422
  Au     10.640454      5.096199     10.778473
  Au      8.095319      3.223267      8.846953
  Au      5.792180      7.027208     10.276383
  Au      8.969033      9.911784      9.496291
  Au     10.062143      7.944353      7.394738
  Au      9.472757      5.458437      8.058633
  Au      5.481071      7.506572      7.255306
  Au      6.620009      5.225473      7.912988
  Cr      7.763334      7.666140      8.637569
11
Coordinates from ORCA-job pbe E -2402.472545109116
  Au      9.886017      7.635503     10.421496
  Au      7.953871      5.536450     10.637564
  Au     10.650101      5.114879     10.762531
  Au      8.079638      3.219150      8.850168
  Au      5.774091      7.007301     10.268029
  Au      8.998218      9.918481      9.451707
  Au     10.079742      7.945494      7.427551
  Au      9.471284      5.444069      8.049976
  Au      5.466020      7.505405      7.286794
  Au      6.624636      5.226135      7.892788
  Cr      7.765080      7.666017      8.656833
11
Coordinates from ORCA-job pbe E -2402.472680757431
  Au      9.862801      7.648307     10.451837
  Au      7.954484      5.512188     10.611471
  Au     10.663433      5.137233     10.766904
  Au      8.057370      3.215617      8.843504
  Au      5.773018      6.997373     10.285871
  Au      9.016102      9.921950      9.435333
  Au     10.052354      7.924374      7.391813
  Au      9.500140      5.428179      8.079449
  Au      5.465483      7.515587      7.292725
  Au      6.643597      5.246418      7.865825
  Cr      7.759916      7.671657      8.680707
11
Coordinates from ORCA-job pbe E -2402.472784637630
  Au      9.861608      7.645236     10.456290
  Au      7.954843      5.520730     10.619506
  Au     10.662675      5.133551     10.754280
  Au      8.062322      3.221934      8.853388
  Au      5.758004      6.977067     10.262624
  Au      9.035074      9.917502      9.417734
  Au     10.054995      7.936499      7.408779
  Au      9.503810      5.426396      8.073127
  Au      5.455771      7.521529      7.302731
  Au      6.643093      5.250999      7.874716
  Cr      7.756503      7.667442      8.682263
11
Coordinates from ORCA-job pbe E -2402.472854890864
  Au      9.863261      7.643711     10.452674
  Au      7.957443      5.525327     10.633386
  Au     10.660537      5.125423     10.752413
  Au      8.064167      3.228819      8.853106
  Au      5.749185      6.958623     10.252068
  Au      9.043114      9.914233      9.407567
  Au     10.047941      7.941397      7.409811
  Au      9.513479      5.428576      8.076975
  Au      5.451656      7.531642      7.299483
  Au      6.644347      5.260783      7.884333
  Cr      7.753569      7.660349      8.683622
11
Coordinates from ORCA-job pbe E -2402.472889814186
  Au      9.866420      7.643350     10.453246
  Au      7.954504      5.526889     10.641510
  Au     10.656769      5.123488     10.756838
  Au      8.067757      3.231923      8.847911
  Au      5.746005      6.950355     10.252585
  Au      9.050643      9.913917      9.401029
  Au     10.036117      7.941312      7.403265
  Au      9.518998      5.430824      8.080116
  Au      5.451764      7.536988      7.296715
  Au      6.646691      5.265045      7.883160
  Cr      7.753030      7.654793      8.689061
11
Coordinates from ORCA-job pbe E -2402.472912283485
  Au      9.871181      7.646416     10.452905
  Au      7.953795      5.525947     10.647534
  Au     10.653685      5.124070     10.763487
  Au      8.066140      3.232757      8.842389
  Au      5.742684      6.941889     10.254538
  Au      9.057958      9.916113      9.395071
  Au     10.026552      7.941033      7.398156
  Au      9.520836      5.432918      8.082421
  Au      5.453578      7.539551      7.295783
  Au      6.648863      5.267033      7.877435
  Cr      7.753425      7.651156      8.695718
11
Coordinates from ORCA-job pbe E -2402.472928371470
  Au      9.875195      7.648802     10.451205
  Au      7.952786      5.524114     10.651116
  Au     10.654063      5.127044     10.769515
  Au      8.063555      3.232754      8.839077
  Au      5.739532      6.934790     10.255714
  Au      9.064936      9.918250      9.391994
  Au     10.017787      7.940926      7.393385
  Au      9.519444      5.433904      8.085554
  Au      5.457549      7.541507      7.295516
  Au      6.650605      5.267749      7.870005
  Cr      7.753246      7.649044      8.702356
11
Coordinates from ORCA-job pbe E -2402.472943681235
  Au      9.880259      7.649339     10.447271
  Au      7.953851      5.522483     10.654924
  Au     10.655044      5.128637     10.774901
  Au      8.059820      3.233162      8.839472
  Au      5.735628      6.926889     10.254830
  Au      9.070415      9.919447      9.390770
  Au     10.009122      7.942590      7.388101
  Au      9.516418      5.436455      8.089412
  Au      5.463543      7.543782      7.294754
  Au      6.652426      5.267676      7.862304
  Cr      7.752173      7.648425      8.708698
11
Coordinates from ORCA-job pbe E -2402.472957374111
  Au      9.885060      7.646358     10.440570
  Au      7.954113      5.522774     10.658585
  Au     10.656892      5.126285     10.778143
  Au      8.058608      3.235315      8.844337
  Au      5.732624      6.921435     10.253065
  Au      9.072352      9.918507      9.393858
  Au     10.000550      7.945929      7.380834
  Au      9.512860      5.440758      8.094269
  Au      5.471675      7.546297      7.291916
  Au      6.653864      5.266677      7.856555
  Cr      7.750101      7.648549      8.713305
11
Coordinates from ORCA-job pbe E -2402.472967371627
  Au      9.889839      7.640397     10.434020
  Au      7.955331      5.525118     10.662095
  Au     10.657767      5.120481     10.778310
  Au      8.059409      3.239017      8.851902
  Au      5.730091      6.918680     10.248840
  Au      9.070912      9.915553      9.398172
  Au      9.995001      7.950278      7.375518
  Au      9.511208      5.446396      8.097862
  Au      5.477158      7.548071      7.288288
  Au      6.654141      5.265172      7.855076
  Cr      7.747840      7.649723      8.715354
11
Coordinates from ORCA-job pbe E -2402.472973169373
  Au      9.892766      7.634989     10.428650
  Au      7.954616      5.528326     10.663778
  Au     10.657195      5.113074     10.777020
  Au      8.062818      3.242647      8.858023
  Au      5.729560      6.919807     10.246258
  Au      9.067411      9.912946      9.403858
  Au      9.992121      7.953286      7.370748
  Au      9.511993      5.450419      8.100366
  Au      5.479791      7.548362      7.284744
  Au      6.654208      5.264068      7.857083
  Cr      7.746218      7.650958      8.714911
11
Coordinates from ORCA-job pbe E -2402.472977226929
  Au      9.895962      7.630998     10.425114
  Au      7.953840      5.531232     10.664714
  Au     10.655510      5.107477     10.775984
  Au      8.066266      3.245180      8.861510
  Au      5.728534      6.921251     10.243166
  Au      9.065276      9.911229      9.407314
  Au      9.990942      7.955088      7.368931
  Au      9.513913      5.452927      8.101253
  Au      5.478797      7.547676      7.283019
  Au      6.654240      5.263480      7.859966
  Cr      7.745419      7.652346      8.714467
11
Coordinates from ORCA-job pbe E -2402.472982037487
  Au      9.901081      7.627065     10.419384
  Au      7.951548      5.534782     10.665444
  Au     10.651916      5.100591     10.776443
  Au      8.071298      3.247596      8.864204
  Au      5.726794      6.923104     10.240303
  Au      9.063545      9.910451      9.412357
  Au      9.988639      7.956616      7.365541
  Au      9.516709      5.455136      8.102575
  Au      5.476988      7.546058      7.281735
  Au      6.655418      5.263157      7.863058
  Cr      7.744762      7.654328      8.714393
11
Coordinates from ORCA-job pbe E -2402.472987338989
  Au      9.909032      7.622827     10.411072
  Au      7.948317      5.538906     10.666255
  Au     10.646873      5.093789     10.779100
  Au      8.077061      3.249488      8.866067
  Au      5.723181      6.924435     10.236660
  Au      9.063416      9.910302      9.418071
  Au      9.985026      7.958205      7.361756
  Au      9.519599      5.457298      8.104116
  Au      5.473934      7.543372      7.281718
  Au      6.657975      5.263094      7.865190
  Cr      7.744285      7.657169      8.715431
11
Coordinates from ORCA-job pbe E -2402.472991153271
  Au      9.916117      7.619790     10.402998
  Au      7.945218      5.542032     10.666822
  Au     10.642378      5.089394     10.783036
  Au      8.081198      3.250196      8.866678
  Au      5.719346      6.924934     10.234598
  Au      9.064471      9.910652      9.422882
  Au      9.981375      7.959378      7.357878
  Au      9.521405      5.458610      8.105752
  Au      5.471686      7.540691      7.282973
  Au      6.661469      5.263481      7.865032
  Cr      7.744037      7.659726      8.716788
11
Coordinates from ORCA-job pbe E -2402.472993067471
  Au      9.919590      7.618292     10.398399
  Au      7.943629      5.543362     10.667203
  Au     10.640468      5.088422     10.786040
  Au      8.082473      3.249959      8.866352
  Au      5.717035      6.925003     10.234198
  Au      9.065388      9.910571      9.425065
  Au      9.979601      7.959889      7.355830
  Au      9.521912      5.459053      8.106854
  Au      5.470529      7.539203      7.284609
  Au      6.664073      5.264094      7.863508
  Cr      7.744002      7.661036      8.717379
11
Coordinates from ORCA-job pbe E -2402.472994026614
  Au      9.920557      7.617424     10.396405
  Au      7.943021      5.543909     10.667676
  Au     10.639938      5.088328     10.787685
  Au      8.082561      3.249881      8.866048
  Au      5.716120      6.925070     10.234563
  Au      9.065541      9.909993      9.425681
  Au      9.979221      7.960219      7.354652
  Au      9.522176      5.459340      8.107685
  Au      5.469950      7.538687      7.285982
  Au      6.665653      5.264661      7.861938
  Cr      7.743962      7.661372      8.717122
