17
E=  -1817.80312398;c=0;m=3
Au      6.374860734325750      5.019974993024370      7.224911313254330
Au      8.976024361681290      5.897659468340010      7.848700143256940
Au      4.337233309908050      6.898225400605940      8.244296316168670
Au      6.938204691931130      6.679693831355100      9.625806301765721
Au      8.653429670845750      8.721641277575490      8.474733337169701
Au      4.408269395615950      9.258817927992620      6.595934906329120
Au      5.826933949672650      9.217443367686659      9.100861890349860
Au      4.967726695541210      6.684335766545620      5.435220320213440
Au      9.751539369376880     10.327848079120740      6.425830154316780
Au      7.030647987985070     10.664665390338440      7.072006467650660
Au      7.984392794530510     11.202495236681481      4.415377154237100
Au      5.248583815270190     11.338782583216521      4.965612581869320
Au     10.441548331186040      7.616806702844830      6.312633177327980
Au      6.397555291893230      8.806967790947571      4.382188574320120
Au      7.886470457327440      6.464569865408110      5.208487345475760
Au      9.191598826552280      8.685217846776171      4.046343957291090
Fe      6.688591726356710      7.701268691540510      7.138336129003760
