13
E=  -1382.49875663;c=0;m=3
Au      6.044730489013140      5.972145134649140      8.252806939493119
Au      6.722480494170980      8.298946853748200      6.718129065255860
Au      6.181514299465560      8.321738983576520      9.620749503701710
Au      6.831925983353900      3.684822024098330      6.923603819446800
Au      8.262023226517140      5.933409471255680      6.207263664544980
Au      9.658340093141250      8.262417800617291      6.413685693645440
Au     10.024672764082901      6.117514361649630     10.340498014349750
Au     10.774417347961210      8.539344531023840      8.882810003277900
Au     11.213216697418421      8.229761620601559     11.589691656971960
Au      8.555854725747521      8.577082144680411     10.927990554866129
Au      8.325225388087871      9.962795614253380      8.425594938914079
Au      8.577619156225840      4.616274995208890      8.798997644079289
Fe      8.408248294813710      7.258264504637670      8.565888011452969
