13
Coordinates from ORCA-job pbe E -2893.396472949216
  Au      6.044730      5.972145      8.252807
  Au      6.722480      8.298947      6.718129
  Au      6.181514      8.321739      9.620750
  Au      6.831926      3.684822      6.923604
  Au      8.262023      5.933409      6.207264
  Au      9.658340      8.262418      6.413686
  Au     10.024673      6.117514     10.340498
  Au     10.774417      8.539345      8.882810
  Au     11.213217      8.229762     11.589692
  Au      8.555855      8.577082     10.927991
  Au      8.325225      9.962796      8.425595
  Au      8.577619      4.616275      8.798998
  Fe      8.408248      7.258265      8.565888
13
Coordinates from ORCA-job pbe E -2893.396679295490
  Au      6.046369      5.981380      8.245837
  Au      6.735404      8.288419      6.731891
  Au      6.201375      8.305505      9.618478
  Au      6.813273      3.712873      6.903401
  Au      8.255646      5.943949      6.208520
  Au      9.654815      8.245654      6.434804
  Au     10.039423      6.115702     10.355621
  Au     10.764060      8.545991      8.879487
  Au     11.201527      8.265211     11.576440
  Au      8.554658      8.583553     10.917592
  Au      8.327526      9.941132      8.429562
  Au      8.573991      4.595403      8.795632
  Fe      8.412203      7.249745      8.570444
13
Coordinates from ORCA-job pbe E -2893.396867102766
  Au      6.041299      5.979987      8.237790
  Au      6.731278      8.295138      6.727215
  Au      6.198858      8.304033      9.621423
  Au      6.817695      3.702991      6.908645
  Au      8.247708      5.942136      6.203020
  Au      9.658433      8.244043      6.432562
  Au     10.034241      6.104605     10.349572
  Au     10.766109      8.554725      8.884665
  Au     11.206304      8.255392     11.581897
  Au      8.559450      8.591837     10.919537
  Au      8.324462      9.949420      8.426568
  Au      8.582967      4.599030      8.805160
  Fe      8.411465      7.251181      8.569655
13
Coordinates from ORCA-job pbe E -2893.396904352644
  Au      6.038554      5.977028      8.227585
  Au      6.727632      8.309540      6.722804
  Au      6.196149      8.301650      9.625882
  Au      6.832486      3.697041      6.924957
  Au      8.237213      5.938769      6.199781
  Au      9.663542      8.241207      6.430294
  Au     10.036451      6.105011     10.350644
  Au     10.766712      8.563081      8.892990
  Au     11.205071      8.232659     11.581262
  Au      8.567212      8.599316     10.920331
  Au      8.316467      9.959796      8.417997
  Au      8.582138      4.596775      8.804332
  Fe      8.410641      7.252643      8.568851
13
Coordinates from ORCA-job pbe E -2893.396982463601
  Au      6.035772      5.981560      8.221925
  Au      6.729528      8.311342      6.724524
  Au      6.200629      8.295353      9.628038
  Au      6.828311      3.690788      6.921022
  Au      8.231767      5.943448      6.196579
  Au      9.665515      8.234511      6.435471
  Au     10.038883      6.102712     10.352324
  Au     10.763641      8.570519      8.892373
  Au     11.209970      8.236055     11.586747
  Au      8.566851      8.606096     10.917243
  Au      8.314874      9.958043      8.416335
  Au      8.583145      4.593166      8.805352
  Fe      8.411383      7.250925      8.569775
13
Coordinates from ORCA-job pbe E -2893.397014246747
  Au      6.036381      5.984128      8.212329
  Au      6.733269      8.312722      6.728110
  Au      6.206454      8.284130      9.633421
  Au      6.824653      3.696705      6.917931
  Au      8.222005      5.946257      6.196405
  Au      9.670706      8.222616      6.442530
  Au     10.038445      6.100106     10.350317
  Au     10.758202      8.578174      8.896790
  Au     11.207099      8.242971     11.583933
  Au      8.571499      8.612383     10.912412
  Au      8.313060      9.953686      8.414316
  Au      8.585337      4.593831      8.807313
  Fe      8.413160      7.246809      8.571901
13
Coordinates from ORCA-job pbe E -2893.397044472714
  Au      6.034066      5.984529      8.206680
  Au      6.733694      8.318330      6.728245
  Au      6.206990      8.278712      9.638094
  Au      6.824266      3.691130      6.918226
  Au      8.216207      5.946379      6.193569
  Au      9.675545      8.216625      6.443669
  Au     10.040345      6.102549     10.351047
  Au     10.757725      8.584279      8.899891
  Au     11.210247      8.241242     11.587862
  Au      8.574171      8.617366     10.912193
  Au      8.309614      9.955243      8.410358
  Au      8.583603      4.592896      8.805163
  Fe      8.413796      7.245237      8.572710
13
Coordinates from ORCA-job pbe E -2893.397058093256
  Au      6.032127      5.985402      8.201409
  Au      6.734097      8.321841      6.728292
  Au      6.207443      8.273192      9.643227
  Au      6.826757      3.687009      6.921841
  Au      8.210776      5.947034      6.191034
  Au      9.680827      8.210257      6.444879
  Au     10.039860      6.106195     10.349059
  Au     10.756736      8.590171      8.901932
  Au     11.212027      8.235927     11.590467
  Au      8.575829      8.621823     10.911544
  Au      8.307506      9.955984      8.407766
  Au      8.581949      4.595968      8.802809
  Fe      8.414336      7.243716      8.573450
13
Coordinates from ORCA-job pbe E -2893.397061493561
  Au      6.030497      5.985079      8.200468
  Au      6.735203      8.321783      6.729257
  Au      6.207648      8.270026      9.645904
  Au      6.823891      3.686976      6.919259
  Au      8.209733      5.946422      6.189178
  Au      9.683651      8.206609      6.445545
  Au     10.039765      6.108844     10.348263
  Au     10.757664      8.592160      8.903496
  Au     11.211541      8.239448     11.590062
  Au      8.577016      8.622955     10.912737
  Au      8.307559      9.954657      8.407790
  Au      8.581040      4.597428      8.801386
  Fe      8.415060      7.242131      8.574366
13
Coordinates from ORCA-job pbe E -2893.397062267545
  Au      6.029814      5.984610      8.200071
  Au      6.735639      8.320236      6.729567
  Au      6.207740      8.269199      9.646579
  Au      6.823833      3.689353      6.919365
  Au      8.209261      5.945832      6.188401
  Au      9.684413      8.205424      6.445858
  Au     10.039236      6.109271     10.347432
  Au     10.758680      8.592865      8.902494
  Au     11.212404      8.240842     11.590984
  Au      8.575824      8.623248     10.913739
  Au      8.307958      9.953395      8.408334
  Au      8.580366      4.598749      8.800365
  Fe      8.415101      7.241492      8.574519
13
Coordinates from ORCA-job pbe E -2893.397063513210
  Au      6.029263      5.985198      8.200856
  Au      6.735691      8.319612      6.729552
  Au      6.207826      8.270023      9.646021
  Au      6.824664      3.688447      6.920247
  Au      8.210066      5.946406      6.187921
  Au      9.683879      8.206101      6.445962
  Au     10.038945      6.109384     10.347134
  Au     10.758626      8.592839      8.902141
  Au     11.211271      8.238996     11.589751
  Au      8.575532      8.623180     10.913666
  Au      8.308570      9.953228      8.409114
  Au      8.580999      4.599098      8.800963
  Fe      8.414937      7.242006      8.574383
13
Coordinates from ORCA-job pbe E -2893.397063600316
  Au      6.029159      5.985135      8.200795
  Au      6.735772      8.319751      6.729576
  Au      6.207776      8.269865      9.646008
  Au      6.824230      3.688658      6.919889
  Au      8.209965      5.946300      6.187802
  Au      9.683936      8.205883      6.445952
  Au     10.039245      6.109177     10.347350
  Au     10.758792      8.592988      8.902349
  Au     11.211308      8.239674     11.589825
  Au      8.575700      8.623227     10.913862
  Au      8.308418      9.953230      8.408998
  Au      8.581044      4.598664      8.800915
  Fe      8.414923      7.241966      8.574389
