16
E=  -1708.83447677;c=0;m=4
Au      5.691997741295300      7.416124165222290      5.832061914197540
Au      8.426696361516260      7.832608675793640      5.183964788402800
Au      9.810435051871769      9.875139884441349      6.598513894388270
Au      6.999338283250260      9.901003132265670      6.496305552500840
Au     10.368282204209841      6.899748811364520      7.040471574377680
Au      7.758759379568000      5.850920946241240      7.097868235260370
Au      5.410259317805960      6.214274561237100      8.426898753438230
Au      3.326850811549190      7.534287679014830      9.612407870019060
Au      7.897966143246140      6.295047721601420      9.838393826616731
Au      4.865762723076480      9.117196770145849      7.995734636865080
Au      7.142467609949840     10.324353543839420      9.239853958173381
Au     10.008953583193220     10.252342529496829      9.373691935266200
Au      5.792032004659930      8.149220107254189     10.640335893015759
Au     10.541283003648299      7.413718335997230      9.795328498019339
Au      8.432583037865550      8.727247480665209     11.198091079936511
Fe      8.612799913294049      8.321045775419259      8.236410669522201
