16
Coordinates from ORCA-job pbe E -3300.905314016285
  Au      5.691998      7.416124      5.832062
  Au      8.426696      7.832609      5.183965
  Au      9.810435      9.875140      6.598514
  Au      6.999338      9.901003      6.496306
  Au     10.368282      6.899749      7.040472
  Au      7.758759      5.850921      7.097868
  Au      5.410259      6.214275      8.426899
  Au      3.326851      7.534288      9.612408
  Au      7.897966      6.295048      9.838394
  Au      4.865763      9.117197      7.995735
  Au      7.142468     10.324354      9.239854
  Au     10.008954     10.252343      9.373692
  Au      5.792032      8.149220     10.640336
  Au     10.541283      7.413718      9.795328
  Au      8.432583      8.727247     11.198091
  Fe      8.612800      8.321046      8.236411
16
Coordinates from ORCA-job pbe E -3300.907712572325
  Au      5.714914      7.424235      5.858355
  Au      8.414694      7.833487      5.205481
  Au      9.797892      9.882617      6.600392
  Au      7.001220      9.885811      6.525236
  Au     10.359429      6.889411      7.045074
  Au      7.753801      5.873144      7.120988
  Au      5.437246      6.230451      8.426945
  Au      3.362072      7.539608      9.601496
  Au      7.885464      6.300501      9.817817
  Au      4.896839      9.112393      7.998904
  Au      7.133581     10.309151      9.222377
  Au      9.988911     10.243062      9.363546
  Au      5.810591      8.149829     10.620456
  Au     10.519930      7.411972      9.784083
  Au      8.416402      8.721283     11.178988
  Fe      8.593480      8.317325      8.236197
16
Coordinates from ORCA-job pbe E -3300.908453639933
  Au      5.729400      7.426991      5.860362
  Au      8.420436      7.834976      5.209298
  Au      9.805215      9.899861      6.598124
  Au      7.018091      9.878599      6.534420
  Au     10.373122      6.876448      7.047490
  Au      7.766872      5.887963      7.126498
  Au      5.437823      6.233096      8.435527
  Au      3.339246      7.538339      9.615708
  Au      7.873734      6.295514      9.809357
  Au      4.898161      9.112700      8.007821
  Au      7.120716     10.306787      9.213897
  Au      9.980479     10.237084      9.350244
  Au      5.820149      8.152262     10.624806
  Au     10.510814      7.410627      9.770271
  Au      8.413313      8.719301     11.171200
  Fe      8.578896      8.313735      8.231310
16
Coordinates from ORCA-job pbe E -3300.909098671274
  Au      5.737900      7.429356      5.867556
  Au      8.432195      7.837438      5.211549
  Au      9.817098      9.921475      6.590821
  Au      7.031025      9.868743      6.543772
  Au     10.392739      6.859621      7.046158
  Au      7.774997      5.904062      7.131948
  Au      5.426476      6.246655      8.445805
  Au      3.344293      7.539755      9.613471
  Au      7.859914      6.286258      9.812525
  Au      4.891752      9.099363      8.021956
  Au      7.103769     10.310984      9.215754
  Au      9.977970     10.230063      9.334452
  Au      5.813731      8.150455     10.621764
  Au     10.506937      7.411614      9.753663
  Au      8.417240      8.719420     11.168902
  Fe      8.558430      8.309018      8.226239
16
Coordinates from ORCA-job pbe E -3300.909632124947
  Au      5.747861      7.431202      5.867322
  Au      8.449825      7.841215      5.214344
  Au      9.823190      9.934556      6.583697
  Au      7.032514      9.861472      6.551018
  Au     10.403356      6.847885      7.042955
  Au      7.773129      5.913362      7.136745
  Au      5.423822      6.247825      8.440389
  Au      3.325524      7.536595      9.615144
  Au      7.857416      6.277678      9.829011
  Au      4.889835      9.095785      8.016821
  Au      7.097293     10.322542      9.229572
  Au      9.978241     10.221424      9.320429
  Au      5.815527      8.151404     10.628892
  Au     10.504913      7.415729      9.738230
  Au      8.427848      8.721317     11.169011
  Fe      8.536173      8.304289      8.222752
16
Coordinates from ORCA-job pbe E -3300.910038674609
  Au      5.752619      7.430745      5.856256
  Au      8.478788      7.846664      5.213961
  Au      9.824514      9.938099      6.580095
  Au      7.035011      9.863658      6.551842
  Au     10.405701      6.843637      7.040732
  Au      7.775824      5.912587      7.137734
  Au      5.424539      6.248640      8.442303
  Au      3.331881      7.539532      9.627772
  Au      7.851388      6.271740      9.844160
  Au      4.890706      9.095973      8.018471
  Au      7.088532     10.329805      9.242575
  Au      9.970064     10.211888      9.312227
  Au      5.823762      8.152707     10.630550
  Au     10.494520      7.419622      9.728343
  Au      8.428917      8.720641     11.163030
  Fe      8.509703      8.298345      8.216281
16
Coordinates from ORCA-job pbe E -3300.910304345954
  Au      5.764893      7.432230      5.848728
  Au      8.495727      7.850618      5.219266
  Au      9.818534      9.934570      6.578885
  Au      7.034102      9.867091      6.556105
  Au     10.398549      6.843680      7.039320
  Au      7.775341      5.910491      7.142905
  Au      5.430192      6.249502      8.436756
  Au      3.343227      7.542280      9.632531
  Au      7.849328      6.263605      9.859026
  Au      4.896325      9.095854      8.012933
  Au      7.082761     10.340165      9.254685
  Au      9.966005     10.205821      9.303719
  Au      5.824716      8.152226     10.629885
  Au     10.489412      7.421939      9.718381
  Au      8.437033      8.722290     11.163039
  Fe      8.480322      8.291917      8.210167
16
Coordinates from ORCA-job pbe E -3300.910413399478
  Au      5.765713      7.432173      5.846721
  Au      8.494191      7.849723      5.216107
  Au      9.819574      9.931740      6.581728
  Au      7.032495      9.873854      6.554271
  Au     10.398204      6.847183      7.041143
  Au      7.776280      5.903340      7.143109
  Au      5.431728      6.250179      8.435480
  Au      3.349426      7.543989      9.635245
  Au      7.850078      6.263279      9.859981
  Au      4.898038      9.095630      8.011769
  Au      7.083127     10.340690      9.255543
  Au      9.962507     10.205352      9.305586
  Au      5.830331      8.152831     10.628634
  Au     10.485960      7.422030      9.720168
  Au      8.436770      8.722165     11.162357
  Fe      8.472046      8.290121      8.208492
16
Coordinates from ORCA-job pbe E -3300.910716913752
  Au      5.774487      7.433946      5.846187
  Au      8.480693      7.846219      5.212669
  Au      9.817939      9.914998      6.591479
  Au      7.031277      9.897073      6.548543
  Au     10.389857      6.863706      7.045766
  Au      7.783249      5.880469      7.144189
  Au      5.437725      6.252749      8.429161
  Au      3.363966      7.547586      9.638616
  Au      7.855154      6.260319      9.860721
  Au      4.904668      9.094396      8.005846
  Au      7.086129     10.344307      9.255526
  Au      9.955278     10.205204      9.310442
  Au      5.842395      8.153794     10.624554
  Au     10.479129      7.422175      9.724790
  Au      8.440448      8.723333     11.165422
  Fe      8.444074      8.284008      8.202422
16
Coordinates from ORCA-job pbe E -3300.910902702677
  Au      5.782900      7.436585      5.853135
  Au      8.466072      7.843087      5.212496
  Au      9.819928      9.896599      6.600694
  Au      7.030821      9.919464      6.544743
  Au     10.384614      6.883042      7.049511
  Au      7.790318      5.859127      7.146909
  Au      5.443609      6.255511      8.423325
  Au      3.370780      7.549223      9.638285
  Au      7.860887      6.255818      9.859092
  Au      4.911069      9.092975      8.000240
  Au      7.089269     10.349078      9.253098
  Au      9.951123     10.202689      9.312072
  Au      5.849634      8.153982     10.620581
  Au     10.474554      7.424338      9.725407
  Au      8.445059      8.725017     11.171230
  Fe      8.415830      8.277747      8.195516
16
Coordinates from ORCA-job pbe E -3300.910975216348
  Au      5.788063      7.438858      5.862306
  Au      8.458198      7.841765      5.214746
  Au      9.824117      9.882079      6.604014
  Au      7.032894      9.933614      6.541610
  Au     10.383116      6.898210      7.048577
  Au      7.797143      5.846120      7.147388
  Au      5.447679      6.257095      8.421860
  Au      3.371934      7.549653      9.636839
  Au      7.864908      6.252180      9.858365
  Au      4.915338      9.092929      7.998467
  Au      7.091128     10.353067      9.251744
  Au      9.948524     10.198807      9.311579
  Au      5.852523      8.153787     10.618283
  Au     10.471043      7.427307      9.723983
  Au      8.445150      8.725849     11.176999
  Fe      8.394710      8.272960      8.189573
16
Coordinates from ORCA-job pbe E -3300.911011673709
  Au      5.788536      7.439883      5.869919
  Au      8.454644      7.841318      5.216151
  Au      9.829260      9.874294      6.602674
  Au      7.034863      9.939432      6.540163
  Au     10.385161      6.906584      7.045206
  Au      7.800789      5.841128      7.147272
  Au      5.450740      6.256291      8.424044
  Au      3.370182      7.549133      9.633561
  Au      7.867833      6.250627      9.857591
  Au      4.917508      9.095262      7.999826
  Au      7.092986     10.355302      9.251042
  Au      9.946987     10.195342      9.310732
  Au      5.851034      8.153146     10.617261
  Au     10.468582      7.429674      9.722470
  Au      8.442210      8.726009     11.181528
  Fe      8.385151      8.270856      8.186892
16
Coordinates from ORCA-job pbe E -3300.911050770240
  Au      5.787207      7.440930      5.879985
  Au      8.450229      7.840869      5.218011
  Au      9.836673      9.866600      6.599047
  Au      7.038175      9.942611      6.539175
  Au     10.389266      6.915052      7.039630
  Au      7.805014      5.838916      7.146061
  Au      5.455315      6.253319      8.430102
  Au      3.366935      7.547690      9.624857
  Au      7.872441      6.250216      9.858367
  Au      4.920413      9.101028      8.004004
  Au      7.096451     10.357514      9.252011
  Au      9.944419     10.190307      9.307290
  Au      5.846832      8.152051     10.616446
  Au     10.464799      7.432279      9.718661
  Au      8.435607      8.725759     11.187338
  Fe      8.376691      8.269138      8.185348
16
Coordinates from ORCA-job pbe E -3300.911068704040
  Au      5.783441      7.440849      5.885442
  Au      8.446829      7.840318      5.217629
  Au      9.840096      9.863374      6.594617
  Au      7.040112      9.942343      6.539638
  Au     10.391328      6.917931      7.035049
  Au      7.806245      5.840095      7.146180
  Au      5.459158      6.249645      8.435278
  Au      3.364710      7.546004      9.615470
  Au      7.875515      6.251070      9.858889
  Au      4.922140      9.106709      8.007636
  Au      7.099388     10.358244      9.253322
  Au      9.943334     10.188261      9.306436
  Au      5.842608      8.151037     10.615819
  Au     10.463201      7.433249      9.717699
  Au      8.431284      8.725595     11.190434
  Fe      8.377076      8.269556      8.186795
16
Coordinates from ORCA-job pbe E -3300.911077191469
  Au      5.780635      7.440776      5.887691
  Au      8.444474      7.839795      5.216752
  Au      9.840949      9.862676      6.593558
  Au      7.041481      9.941014      6.541004
  Au     10.391558      6.918441      7.033976
  Au      7.807034      5.842038      7.146329
  Au      5.461709      6.246991      8.438531
  Au      3.364195      7.544782      9.607344
  Au      7.877190      6.251672      9.861483
  Au      4.923824      9.110806      8.009726
  Au      7.100650     10.358779      9.255882
  Au      9.942649     10.187615      9.303749
  Au      5.840753      8.150517     10.615182
  Au     10.462517      7.433011      9.715673
  Au      8.429608      8.725494     11.190903
  Fe      8.377241      8.269872      8.188551
16
Coordinates from ORCA-job pbe E -3300.911082143116
  Au      5.777843      7.440472      5.888833
  Au      8.441766      7.839038      5.214970
  Au      9.840217      9.861242      6.592635
  Au      7.042447      9.940960      6.541920
  Au     10.390207      6.919079      7.033264
  Au      7.807424      5.842868      7.147230
  Au      5.463575      6.245043      8.439780
  Au      3.364294      7.543870      9.601753
  Au      7.877796      6.251735      9.862505
  Au      4.924795      9.113399      8.010379
  Au      7.101138     10.359206      9.257241
  Au      9.942910     10.188636      9.304303
  Au      5.840180      8.150130     10.614145
  Au     10.463114      7.432490      9.716586
  Au      8.429827      8.725572     11.190338
  Fe      8.378935      8.270541      8.190449
16
Coordinates from ORCA-job pbe E -3300.911086131248
  Au      5.776039      7.440422      5.889958
  Au      8.439488      7.838301      5.213179
  Au      9.839849      9.859324      6.593181
  Au      7.043765      9.941455      6.543059
  Au     10.388895      6.920572      7.033627
  Au      7.808423      5.843279      7.148165
  Au      5.464789      6.243692      8.440093
  Au      3.364656      7.543327      9.597908
  Au      7.877815      6.250697      9.864126
  Au      4.925662      9.115078      8.010264
  Au      7.100527     10.360394      9.258753
  Au      9.943071     10.189643      9.303970
  Au      5.840642      8.149843     10.612756
  Au     10.463670      7.431987      9.716797
  Au      8.431099      8.725643     11.188691
  Fe      8.378078      8.270623      8.191806
