11
E=  -1145.48942512;c=0;m=6
Au      7.619815857212630      5.907785061961290      5.916547062832650
Au      5.649698235182510      4.261973398329250      7.696783737723380
Au      7.992133651396310      6.067605000728260     10.704607590336771
Au      8.871627831036060      4.802253992919390      8.517095181464180
Au      7.913416157812020      3.318369955065130      6.342406647643310
Au      7.589659844412870      8.151278993668420      4.561106964060740
Au      4.965440983945500      5.569358167492520      9.930056917776501
Au      5.821953788713790      7.154802139209930     12.024724077131220
Au      6.225227193684180      8.452357940169341      9.644701102435921
Au      6.877753113845820      8.478770727038640      7.103592654820240
Mn      6.871482052758290      6.326701193417850      8.441360403774929
