11
Coordinates from ORCA-job pbe E -2402.471097590503
  Au      6.002608      7.598043      6.438260
  Au     11.748893      4.771575      7.199974
  Au      7.413400      5.433105      5.283024
  Au      9.145157      3.980350      7.146388
  Au      9.919586      6.667680      6.062343
  Au      6.603112      4.037809      7.944292
  Au      5.611985      6.407023      9.018061
  Au      8.070031      7.279531     10.032863
  Au     10.113865      5.972552      9.011712
  Au      8.509242      8.721922      7.333026
  Cr      7.849849      6.274659      7.674244
11
Coordinates from ORCA-job pbe E -2402.472712115178
  Au      5.996816      7.599437      6.434241
  Au     11.716710      4.805720      7.171554
  Au      7.435630      5.439168      5.272307
  Au      9.147094      3.966819      7.143594
  Au      9.922575      6.660987      6.066013
  Au      6.598316      4.009516      7.955207
  Au      5.586636      6.423129      9.014786
  Au      8.062513      7.280488     10.073336
  Au     10.136290      5.960401      9.031884
  Au      8.533084      8.724435      7.300610
  Cr      7.852063      6.274150      7.680656
11
Coordinates from ORCA-job pbe E -2402.473425600104
  Au      5.980209      7.595975      6.440961
  Au     11.717687      4.840270      7.128865
  Au      7.467054      5.455634      5.259106
  Au      9.122481      3.942571      7.136090
  Au      9.924664      6.664314      6.056263
  Au      6.598314      3.983116      7.979395
  Au      5.566431      6.445783      9.001146
  Au      8.061679      7.256101     10.117541
  Au     10.131289      5.960385      9.092612
  Au      8.565331      8.723658      7.241368
  Cr      7.852588      6.276443      7.690839
11
Coordinates from ORCA-job pbe E -2402.474060718818
  Au      5.976743      7.586632      6.442019
  Au     11.667376      4.857211      7.139532
  Au      7.479195      5.470890      5.252708
  Au      9.122525      3.952164      7.128070
  Au      9.929942      6.664132      6.051839
  Au      6.609320      3.981957      8.000151
  Au      5.583380      6.448870      8.998312
  Au      8.057679      7.224409     10.133614
  Au     10.127388      5.953249      9.102150
  Au      8.576171      8.724674      7.201893
  Cr      7.858009      6.280060      7.693899
11
Coordinates from ORCA-job pbe E -2402.474623081373
  Au      5.969247      7.575986      6.438515
  Au     11.666317      4.838367      7.175319
  Au      7.475667      5.492736      5.247023
  Au      9.119876      3.963653      7.110130
  Au      9.934517      6.677634      6.030140
  Au      6.620469      3.994570      8.028630
  Au      5.604553      6.449675      9.005187
  Au      8.034435      7.185419     10.153294
  Au     10.133775      5.940607      9.102846
  Au      8.567826      8.735245      7.157696
  Cr      7.861045      6.290358      7.695406
11
Coordinates from ORCA-job pbe E -2402.475390767793
  Au      5.966454      7.564244      6.427286
  Au     11.669666      4.844803      7.179391
  Au      7.482756      5.516407      5.244668
  Au      9.110878      3.981482      7.084527
  Au      9.955282      6.674022      6.015127
  Au      6.634289      4.010516      8.078392
  Au      5.605396      6.463561      9.009164
  Au      8.016888      7.121257     10.190428
  Au     10.120793      5.920598      9.121394
  Au      8.559004      8.743342      7.089754
  Cr      7.866320      6.304019      7.704056
11
Coordinates from ORCA-job pbe E -2402.476557071147
  Au      5.954256      7.548063      6.413701
  Au     11.678976      4.844780      7.180266
  Au      7.504901      5.549636      5.242294
  Au      9.093916      4.016407      7.042714
  Au      9.984362      6.674205      6.009376
  Au      6.673072      4.038840      8.157610
  Au      5.585027      6.498351      9.010127
  Au      7.999526      7.009460     10.255064
  Au     10.099414      5.885352      9.145157
  Au      8.538053      8.747020      6.967668
  Cr      7.876225      6.332135      7.720210
11
Coordinates from ORCA-job pbe E -2402.477464276031
  Au      5.931822      7.532997      6.407458
  Au     11.699003      4.843365      7.176362
  Au      7.522716      5.584001      5.234463
  Au      9.088441      4.043140      7.004173
  Au     10.019748      6.670977      6.022476
  Au      6.709952      4.074343      8.239746
  Au      5.562751      6.542465      9.006080
  Au      7.975007      6.900762     10.311769
  Au     10.084769      5.841535      9.156308
  Au      8.507888      8.747970      6.849230
  Cr      7.885632      6.362696      7.736120
11
Coordinates from ORCA-job pbe E -2402.478162220826
  Au      5.895551      7.516657      6.406983
  Au     11.715847      4.829200      7.181702
  Au      7.535911      5.625027      5.223929
  Au      9.081293      4.062766      6.975499
  Au     10.052411      6.676893      6.054741
  Au      6.765673      4.111352      8.311657
  Au      5.547658      6.593174      9.002605
  Au      7.946317      6.789762     10.356924
  Au     10.076444      5.796316      9.155661
  Au      8.474202      8.744885      6.724598
  Cr      7.896420      6.398217      7.749888
11
Coordinates from ORCA-job pbe E -2402.478514537887
  Au      5.864801      7.508893      6.405008
  Au     11.724171      4.808207      7.187344
  Au      7.543181      5.651773      5.219586
  Au      9.090909      4.067623      6.950733
  Au     10.070063      6.688222      6.094907
  Au      6.800373      4.140619      8.362162
  Au      5.544128      6.625425      8.998581
  Au      7.932242      6.717209     10.377235
  Au     10.070686      5.765429      9.152666
  Au      8.443852      8.744860      6.639934
  Cr      7.903322      6.425990      7.756031
11
Coordinates from ORCA-job pbe E -2402.478746567204
  Au      5.844013      7.509425      6.401955
  Au     11.725154      4.799909      7.184303
  Au      7.547654      5.658706      5.225179
  Au      9.085072      4.060322      6.943543
  Au     10.080073      6.699082      6.140932
  Au      6.827416      4.155970      8.378966
  Au      5.548353      6.641144      8.994053
  Au      7.925170      6.684884     10.382462
  Au     10.074096      5.743209      9.145041
  Au      8.424297      8.748086      6.592570
  Cr      7.906430      6.443512      7.755182
11
Coordinates from ORCA-job pbe E -2402.478916539750
  Au      5.835735      7.513600      6.393478
  Au     11.720213      4.783343      7.180051
  Au      7.550065      5.657531      5.235815
  Au      9.087820      4.050963      6.935350
  Au     10.081401      6.716739      6.177158
  Au      6.838163      4.161774      8.385809
  Au      5.553603      6.639232      8.990557
  Au      7.932869      6.679578     10.380730
  Au     10.073950      5.731340      9.145199
  Au      8.408015      8.755364      6.569447
  Cr      7.905894      6.454787      7.750595
11
Coordinates from ORCA-job pbe E -2402.479019669677
  Au      5.838169      7.520683      6.386257
  Au     11.715862      4.780229      7.172392
  Au      7.548484      5.647498      5.247411
  Au      9.085377      4.040968      6.934544
  Au     10.086232      6.730335      6.200841
  Au      6.835774      4.160578      8.383675
  Au      5.559113      6.626781      8.986762
  Au      7.945312      6.693788     10.375270
  Au     10.072641      5.719974      9.146936
  Au      8.398156      8.764728      6.566254
  Cr      7.902607      6.458688      7.743845
11
Coordinates from ORCA-job pbe E -2402.479060172546
  Au      5.843197      7.524586      6.384107
  Au     11.714095      4.780575      7.167013
  Au      7.548453      5.639924      5.251520
  Au      9.083410      4.038499      6.940635
  Au     10.088264      6.740564      6.203679
  Au      6.830523      4.156911      8.380345
  Au      5.559808      6.615959      8.986271
  Au      7.952995      6.708022     10.371465
  Au     10.069344      5.711994      9.148438
  Au      8.398082      8.768704      6.570757
  Cr      7.899555      6.458511      7.739955
11
Coordinates from ORCA-job pbe E -2402.479086937013
  Au      5.845648      7.526018      6.383739
  Au     11.714550      4.781218      7.160789
  Au      7.551521      5.636317      5.252591
  Au      9.082125      4.040413      6.946059
  Au     10.095419      6.748680      6.207303
  Au      6.829597      4.158354      8.386276
  Au      5.558171      6.610600      8.986445
  Au      7.956072      6.711326     10.370158
  Au     10.063209      5.697325      9.148039
  Au      8.393891      8.772433      6.565202
  Cr      7.897525      6.461565      7.737586
11
Coordinates from ORCA-job pbe E -2402.479099383127
  Au      5.846255      7.525708      6.385478
  Au     11.715431      4.784963      7.156792
  Au      7.555591      5.636003      5.250495
  Au      9.081613      4.042106      6.950939
  Au     10.097424      6.753943      6.207224
  Au      6.829251      4.159462      8.392385
  Au      5.555900      6.609572      8.987268
  Au      7.955712      6.711398     10.369861
  Au     10.059086      5.685537      9.147161
  Au      8.395194      8.772111      6.559973
  Cr      7.896270      6.463447      7.736611
11
Coordinates from ORCA-job pbe E -2402.479104602248
  Au      5.844329      7.523787      6.386741
  Au     11.715789      4.782990      7.156866
  Au      7.559115      5.639110      5.248057
  Au      9.081639      4.043828      6.950392
  Au     10.098860      6.754622      6.208729
  Au      6.833494      4.162033      8.398249
  Au      5.554050      6.612092      8.988030
  Au      7.954088      6.706620     10.370250
  Au     10.057396      5.680882      9.146162
  Au      8.392774      8.772481      6.554083
  Cr      7.896196      6.465804      7.736627
11
Coordinates from ORCA-job pbe E -2402.479109138233
  Au      5.842821      7.521616      6.388241
  Au     11.715502      4.782922      7.157654
  Au      7.562488      5.642759      5.244872
  Au      9.081259      4.044130      6.948220
  Au     10.098613      6.753591      6.209133
  Au      6.836775      4.163760      8.403503
  Au      5.552912      6.614283      8.989041
  Au      7.952199      6.703950     10.369933
  Au     10.056778      5.678570      9.146076
  Au      8.392509      8.771902      6.551134
  Cr      7.895873      6.466768      7.736380
11
Coordinates from ORCA-job pbe E -2402.479114895467
  Au      5.841309      7.519075      6.389882
  Au     11.714674      4.781461      7.159305
  Au      7.566454      5.647221      5.240423
  Au      9.080070      4.043618      6.944970
  Au     10.098056      6.752334      6.210058
  Au      6.841455      4.165144      8.409368
  Au      5.551445      6.614983      8.990471
  Au      7.951471      6.704294     10.368084
  Au     10.055753      5.677075      9.146004
  Au      8.392308      8.771844      6.550729
  Cr      7.894733      6.467201      7.734893
11
Coordinates from ORCA-job pbe E -2402.479120749196
  Au      5.840142      7.516568      6.391153
  Au     11.713241      4.779788      7.160588
  Au      7.570278      5.652001      5.235514
  Au      9.077906      4.042811      6.940457
  Au     10.098352      6.751282      6.211362
  Au      6.846715      4.165834      8.416518
  Au      5.550250      6.613746      8.991908
  Au      7.951136      6.707758     10.365515
  Au     10.053846      5.675958      9.146334
  Au      8.392847      8.771637      6.552451
  Cr      7.893014      6.466867      7.732386
11
Coordinates from ORCA-job pbe E -2402.479125774045
  Au      5.839003      7.515316      6.391637
  Au     11.711968      4.777561      7.162059
  Au      7.572202      5.655995      5.231659
  Au      9.075370      4.042465      6.935881
  Au     10.099911      6.751337      6.213231
  Au      6.851965      4.165674      8.423532
  Au      5.549551      6.611077      8.992453
  Au      7.951576      6.712301     10.363360
  Au     10.051303      5.675146      9.146257
  Au      8.393405      8.771196      6.554517
  Cr      7.891473      6.466181      7.729602
11
Coordinates from ORCA-job pbe E -2402.479130962137
  Au      5.837381      7.515201      6.391587
  Au     11.710573      4.774738      7.163484
  Au      7.572992      5.660466      5.228337
  Au      9.072402      4.043147      6.930205
  Au     10.103183      6.752386      6.215970
  Au      6.858635      4.165040      8.432860
  Au      5.549264      6.607784      8.991940
  Au      7.951363      6.716317     10.362210
  Au     10.047868      5.673735      9.145960
  Au      8.393698      8.769962      6.554818
  Cr      7.890369      6.465473      7.726817
11
Coordinates from ORCA-job pbe E -2402.479135975679
  Au      5.835267      7.516599      6.391507
  Au     11.709379      4.771711      7.165428
  Au      7.572649      5.665419      5.225534
  Au      9.069521      4.044901      6.924033
  Au     10.107406      6.754030      6.219057
  Au      6.866676      4.164023      8.443988
  Au      5.549048      6.604957      8.990222
  Au      7.950316      6.718228     10.362241
  Au     10.044049      5.671575      9.145288
  Au      8.393404      8.767963      6.552293
  Cr      7.890012      6.464843      7.724595
11
Coordinates from ORCA-job pbe E -2402.479140418341
  Au      5.833267      7.519558      6.391794
  Au     11.708372      4.769158      7.167322
  Au      7.571878      5.670382      5.223415
  Au      9.067263      4.047221      6.918210
  Au     10.111526      6.755897      6.222101
  Au      6.875343      4.163015      8.455985
  Au      5.548702      6.603026      8.987547
  Au      7.948230      6.717625     10.363078
  Au     10.040456      5.668237      9.144744
  Au      8.392303      8.765727      6.546693
  Cr      7.890388      6.464404      7.723299
11
Coordinates from ORCA-job pbe E -2402.479143944094
  Au      5.832111      7.523652      6.392740
  Au     11.707642      4.767720      7.169051
  Au      7.571072      5.674372      5.221989
  Au      9.065921      4.049057      6.913832
  Au     10.114164      6.757379      6.224331
  Au      6.883091      4.162160      8.466391
  Au      5.547969      6.601722      8.984583
  Au      7.946042      6.715812     10.363642
  Au     10.037776      5.664357      9.144734
  Au      8.390828      8.764096      6.540085
  Cr      7.891112      6.463924      7.722808
11
Coordinates from ORCA-job pbe E -2402.479146658032
  Au      5.832048      7.528177      6.394163
  Au     11.707016      4.767367      7.170323
  Au      7.570596      5.677252      5.221092
  Au      9.065211      4.049965      6.910674
  Au     10.115214      6.758362      6.225716
  Au      6.889586      4.161681      8.474897
  Au      5.546839      6.600268      8.981896
  Au      7.944132      6.714259     10.363305
  Au     10.035883      5.660125      9.145554
  Au      8.389413      8.763453      6.533920
  Cr      7.891789      6.463342      7.722646
11
Coordinates from ORCA-job pbe E -2402.479148328730
  Au      5.832890      7.531787      6.395597
  Au     11.706594      4.767828      7.171138
  Au      7.570269      5.678517      5.220660
  Au      9.064967      4.049759      6.908951
  Au     10.114803      6.758607      6.225973
  Au      6.893664      4.161479      8.479810
  Au      5.545553      6.598445      8.980194
  Au      7.943207      6.714362     10.361976
  Au     10.034826      5.656949      9.146805
  Au      8.388857      8.763890      6.530672
  Cr      7.892098      6.462628      7.722412
11
Coordinates from ORCA-job pbe E -2402.479149076295
  Au      5.833928      7.533483      6.396372
  Au     11.706410      4.768450      7.171446
  Au      7.569939      5.678485      5.220674
  Au      9.064966      4.049150      6.908227
  Au     10.114002      6.758393      6.225575
  Au      6.895252      4.161562      8.481402
  Au      5.544647      6.596798      8.979679
  Au      7.943040      6.715585     10.360621
  Au     10.034318      5.655405      9.147782
  Au      8.389132      8.764757      6.530337
  Cr      7.892093      6.462183      7.722071
