15
E=  -1571.21640797;c=0;m=3
Au      5.928315213429340     10.251758144590401      6.355377663455790
Au      5.178829511242130      7.636414028297890      7.257129596909700
Au      7.464508415046550      6.063943667402630      7.576050187309110
Au      7.411809324118030      8.953582411289441      8.378680113468659
Au      9.292969728221371      7.215380552138090      9.481145135637060
Au     10.046615072142879      9.843762429443739      8.576341464320841
Au      8.704552693265390     10.390763091811950      6.086461951012080
Au     11.441268386340500      9.605312763306671      6.117093298063060
Au     11.842137438734980      7.635411946765030      8.240074530967799
Au      8.939787306185780      5.813218167572150      5.113914240816770
Au     11.619985435207051      6.754037426605720      5.494933340123880
Au      9.692766535843329      8.441618073591769      4.209235240718340
Au      7.159609665223020      7.953830843746630      5.268031792305910
Au     10.206642531582160      5.298008977529840      7.600001509640560
Cr      9.549015713417679      7.812642475907990      6.845689015250440
