15
Coordinates from ORCA-job pbe E -2945.839291796075
  Au      5.928315     10.251758      6.355378
  Au      5.178830      7.636414      7.257130
  Au      7.464508      6.063944      7.576050
  Au      7.411809      8.953582      8.378680
  Au      9.292970      7.215381      9.481145
  Au     10.046615      9.843762      8.576341
  Au      8.704553     10.390763      6.086462
  Au     11.441268      9.605313      6.117093
  Au     11.842137      7.635412      8.240075
  Au      8.939787      5.813218      5.113914
  Au     11.619985      6.754037      5.494933
  Au      9.692767      8.441618      4.209235
  Au      7.159610      7.953831      5.268032
  Au     10.206643      5.298009      7.600002
  Cr      9.549016      7.812642      6.845689
15
Coordinates from ORCA-job pbe E -2945.839918486511
  Au      5.994358     10.228309      6.357382
  Au      5.247945      7.620808      7.256658
  Au      7.454960      6.074628      7.573187
  Au      7.432420      8.943312      8.364697
  Au      9.267714      7.215925      9.488749
  Au     10.026345      9.860104      8.577756
  Au      8.690464     10.386976      6.089112
  Au     11.433258      9.615485      6.114426
  Au     11.829277      7.637290      8.236538
  Au      8.913803      5.810420      5.111357
  Au     11.608065      6.758827      5.498859
  Au      9.671131      8.454920      4.201257
  Au      7.182719      7.951989      5.282558
  Au     10.193277      5.293451      7.602115
  Cr      9.533076      7.817242      6.845507
15
Coordinates from ORCA-job pbe E -2945.840648055454
  Au      5.992942     10.250214      6.350052
  Au      5.235491      7.602002      7.264023
  Au      7.457612      6.051874      7.580047
  Au      7.423882      8.950136      8.375566
  Au      9.272734      7.208050      9.497381
  Au     10.036551      9.868195      8.580392
  Au      8.704318     10.405069      6.082463
  Au     11.436012      9.616296      6.113857
  Au     11.822993      7.637430      8.233416
  Au      8.918180      5.798630      5.108072
  Au     11.602639      6.761671      5.502449
  Au      9.679965      8.459403      4.192865
  Au      7.172125      7.951146      5.271636
  Au     10.194260      5.291133      7.602494
  Cr      9.529110      7.818436      6.845447
15
Coordinates from ORCA-job pbe E -2945.840985999907
  Au      6.006902     10.253201      6.347457
  Au      5.245974      7.591429      7.267132
  Au      7.472676      6.031347      7.585087
  Au      7.422993      8.953186      8.381521
  Au      9.270128      7.207526      9.495949
  Au     10.035484      9.869499      8.577803
  Au      8.727371     10.414357      6.077966
  Au     11.430258      9.617549      6.113709
  Au     11.808238      7.640144      8.231406
  Au      8.916581      5.798872      5.109343
  Au     11.588730      6.766611      5.504973
  Au      9.678437      8.461796      4.194482
  Au      7.169764      7.949618      5.265776
  Au     10.188036      5.292709      7.602255
  Cr      9.517242      7.821841      6.845301
15
Coordinates from ORCA-job pbe E -2945.841388140231
  Au      6.038724     10.255366      6.343464
  Au      5.272891      7.571317      7.272353
  Au      7.481530      5.996386      7.594866
  Au      7.423426      8.958250      8.392541
  Au      9.261277      7.207971      9.500458
  Au     10.030905      9.876974      8.579227
  Au      8.752853     10.439115      6.068679
  Au     11.433700      9.620874      6.111836
  Au     11.787144      7.644396      8.231095
  Au      8.908707      5.796736      5.105808
  Au     11.568746      6.772802      5.506469
  Au      9.671569      8.466861      4.189949
  Au      7.167686      7.945876      5.254914
  Au     10.188264      5.287529      7.603508
  Cr      9.491392      7.829232      6.844992
15
Coordinates from ORCA-job pbe E -2945.841683261320
  Au      6.063716     10.248670      6.343262
  Au      5.297863      7.564578      7.273377
  Au      7.489783      5.971445      7.601237
  Au      7.420610      8.964166      8.403221
  Au      9.252987      7.207408      9.501747
  Au     10.026146      9.882131      8.578570
  Au      8.771438     10.455313      6.062689
  Au     11.440850      9.613004      6.113189
  Au     11.771031      7.647837      8.230433
  Au      8.902100      5.795746      5.105555
  Au     11.553837      6.777870      5.507917
  Au      9.665128      8.471573      4.188316
  Au      7.161949      7.942886      5.244073
  Au     10.198672      5.289865      7.601848
  Cr      9.462700      7.837194      6.844725
15
Coordinates from ORCA-job pbe E -2945.841946281117
  Au      6.085812     10.243385      6.342724
  Au      5.321973      7.555887      7.275440
  Au      7.495975      5.949439      7.606458
  Au      7.423836      8.972597      8.423942
  Au      9.239760      7.207095      9.500063
  Au     10.017877      9.887224      8.575637
  Au      8.789513     10.470824      6.057123
  Au     11.454818      9.594309      6.117408
  Au     11.757431      7.650532      8.229762
  Au      8.891773      5.797313      5.108080
  Au     11.541392      6.781943      5.509271
  Au      9.654730      8.478024      4.189430
  Au      7.160696      7.934792      5.222783
  Au     10.221175      5.297673      7.597712
  Cr      9.422052      7.848647      6.844326
15
Coordinates from ORCA-job pbe E -2945.842092284326
  Au      6.092929     10.230788      6.345474
  Au      5.333941      7.565822      7.272628
  Au      7.502682      5.944522      7.606372
  Au      7.410840      8.983085      8.437864
  Au      9.240473      7.200713      9.499089
  Au     10.022390      9.888736      8.573588
  Au      8.795269     10.470741      6.057165
  Au     11.465426      9.576507      6.122118
  Au     11.751705      7.654381      8.233809
  Au      8.895090      5.792651      5.111567
  Au     11.535442      6.782898      5.504669
  Au      9.657950      8.481281      4.190011
  Au      7.143830      7.933548      5.207989
  Au     10.240682      5.306745      7.593633
  Cr      9.390164      7.857265      6.844185
15
Coordinates from ORCA-job pbe E -2945.842184697502
  Au      6.085979     10.233275      6.344566
  Au      5.326285      7.568018      7.273106
  Au      7.500072      5.952761      7.603829
  Au      7.415009      8.984081      8.443120
  Au      9.243429      7.200016      9.498166
  Au     10.024633      9.886606      8.574075
  Au      8.788670     10.464935      6.059565
  Au     11.464221      9.576841      6.122470
  Au     11.756738      7.653232      8.232811
  Au      8.898144      5.792360      5.112116
  Au     11.540147      6.781780      5.504981
  Au      9.660602      8.479828      4.190797
  Au      7.146999      7.930660      5.202708
  Au     10.239991      5.307438      7.593600
  Cr      9.387893      7.857855      6.844249
15
Coordinates from ORCA-job pbe E -2945.842237250795
  Au      6.073774     10.230688      6.345400
  Au      5.319739      7.572911      7.272754
  Au      7.494542      5.967236      7.599509
  Au      7.418399      8.985263      8.447659
  Au      9.250164      7.199780      9.498107
  Au     10.031452      9.883451      8.575933
  Au      8.780489     10.456403      6.063208
  Au     11.459454      9.579552      6.122449
  Au     11.762332      7.649896      8.228027
  Au      8.904556      5.791877      5.111128
  Au     11.545578      6.781038      5.509064
  Au      9.667444      8.476444      4.190774
  Au      7.150693      7.927884      5.198080
  Au     10.234839      5.308333      7.593848
  Cr      9.385358      7.858928      6.844218
15
Coordinates from ORCA-job pbe E -2945.842250493868
  Au      6.072639     10.229330      6.345419
  Au      5.314800      7.581466      7.270995
  Au      7.493859      5.971491      7.597855
  Au      7.421467      8.985167      8.450018
  Au      9.255490      7.199476      9.498966
  Au     10.034512      9.880606      8.578519
  Au      8.771674     10.451291      6.065680
  Au     11.454683      9.583764      6.121769
  Au     11.765463      7.648951      8.223617
  Au      8.909998      5.789776      5.109819
  Au     11.549185      6.782619      5.512397
  Au      9.670851      8.473215      4.189906
  Au      7.152421      7.926131      5.196085
  Au     10.229082      5.307251      7.594682
  Cr      9.382689      7.859152      6.844431
15
Coordinates from ORCA-job pbe E -2945.842259009622
  Au      6.070213     10.225995      6.346403
  Au      5.317606      7.580831      7.271073
  Au      7.491525      5.973225      7.597444
  Au      7.421782      8.985574      8.450433
  Au      9.257028      7.200560      9.499734
  Au     10.037091      9.880335      8.579485
  Au      8.772923     10.452237      6.065546
  Au     11.452529      9.586710      6.121045
  Au     11.765261      7.647343      8.221945
  Au      8.911430      5.790128      5.108341
  Au     11.549160      6.782530      5.514370
  Au      9.672861      8.472239      4.189146
  Au      7.153329      7.925698      5.195626
  Au     10.225165      5.306183      7.595271
  Cr      9.380912      7.860097      6.844297
15
Coordinates from ORCA-job pbe E -2945.842260769245
  Au      6.072828     10.225577      6.346267
  Au      5.319850      7.580037      7.271152
  Au      7.491862      5.970346      7.598326
  Au      7.421517      8.985930      8.450828
  Au      9.256769      7.200801      9.500032
  Au     10.036991      9.880585      8.579552
  Au      8.774391     10.454423      6.064896
  Au     11.452148      9.587235      6.120835
  Au     11.763912      7.647248      8.221301
  Au      8.911294      5.790258      5.107977
  Au     11.548039      6.783227      5.515033
  Au      9.672319      8.472304      4.189061
  Au      7.153253      7.925323      5.195241
  Au     10.224452      5.305806      7.595382
  Cr      9.379189      7.860585      6.844275
