11
E=  -1145.96462607;c=0;m=4
Au      7.687329564688150      7.419942778757280      4.947963463129760
Au      5.450751939378940      8.390565904958720      6.425850382537560
Au      5.997030912055350     10.295714540471950      8.554437602649230
Au      7.950004420617280      9.828376397148590      6.450395628532050
Au      9.703839985650390      6.817111239395130      8.948455951214971
Au      9.585074945438249      4.058333955090640      8.521981988034391
Au      8.464664322386181      9.179664743961069      9.235059699028390
Au      7.134551658588880      5.339530653764150      8.922936693662610
Au      5.711322090654970      7.596074808048220      9.207683051091429
Au      8.794034254645720      5.471077279061800      6.369287655189510
Mn      7.636622585895870      7.463040609342430      7.532285704930100
