11
Coordinates from ORCA-job pbe E -2509.021032655291
  Au      7.687330      7.419943      4.947963
  Au      5.450752      8.390566      6.425850
  Au      5.997031     10.295715      8.554438
  Au      7.950004      9.828376      6.450396
  Au      9.703840      6.817111      8.948456
  Au      9.585075      4.058334      8.521982
  Au      8.464664      9.179665      9.235060
  Au      7.134552      5.339531      8.922937
  Au      5.711322      7.596075      9.207683
  Au      8.794034      5.471077      6.369288
  Mn      7.636623      7.463041      7.532286
11
Coordinates from ORCA-job pbe E -2509.022756995464
  Au      7.679054      7.434834      4.919004
  Au      5.442181      8.405240      6.436691
  Au      6.006252     10.280850      8.525203
  Au      7.941494      9.842372      6.461524
  Au      9.715371      6.818658      8.975173
  Au      9.592342      4.045901      8.507485
  Au      8.478317      9.196905      9.235542
  Au      7.127298      5.329760      8.949823
  Au      5.689316      7.592858      9.207677
  Au      8.808268      5.446870      6.362906
  Mn      7.635333      7.465184      7.535309
11
Coordinates from ORCA-job pbe E -2509.024048565208
  Au      7.681084      7.431407      4.905372
  Au      5.433087      8.424279      6.444617
  Au      6.024052     10.251625      8.495606
  Au      7.929528      9.858739      6.469523
  Au      9.715097      6.809922      9.012112
  Au      9.575679      4.075061      8.497672
  Au      8.522302      9.210432      9.230315
  Au      7.134642      5.325172      8.987340
  Au      5.655267      7.561225      9.201191
  Au      8.808611      5.447519      6.334692
  Mn      7.635878      7.464051      7.537899
11
Coordinates from ORCA-job pbe E -2509.024887866842
  Au      7.674044      7.443121      4.904587
  Au      5.423419      8.433628      6.436961
  Au      6.044854     10.217107      8.487407
  Au      7.926740      9.870686      6.461528
  Au      9.707649      6.811845      9.056778
  Au      9.572025      4.083256      8.494161
  Au      8.576426      9.225995      9.217057
  Au      7.135582      5.331895      9.032208
  Au      5.614141      7.522350      9.186272
  Au      8.804418      5.456114      6.298927
  Mn      7.635927      7.463436      7.540452
11
Coordinates from ORCA-job pbe E -2509.025620280194
  Au      7.660269      7.466089      4.912024
  Au      5.417661      8.426468      6.422156
  Au      6.070154     10.173622      8.491864
  Au      7.936613      9.871241      6.446276
  Au      9.690645      6.804324      9.099773
  Au      9.551096      4.121731      8.471586
  Au      8.627982      9.244187      9.198963
  Au      7.149310      5.342407      9.075289
  Au      5.572516      7.487080      9.166568
  Au      8.801220      5.462444      6.285632
  Mn      7.637763      7.459841      7.546206
11
Coordinates from ORCA-job pbe E -2509.026186224678
  Au      7.642481      7.495161      4.920055
  Au      5.415298      8.418794      6.410330
  Au      6.098463     10.123709      8.503453
  Au      7.945381      9.869084      6.434300
  Au      9.674991      6.802714      9.138502
  Au      9.549509      4.124837      8.467868
  Au      8.672110      9.267835      9.170062
  Au      7.157584      5.354771      9.113633
  Au      5.530768      7.460971      9.136569
  Au      8.790993      5.481709      6.268433
  Mn      7.637648      7.459849      7.553133
11
Coordinates from ORCA-job pbe E -2509.026549684902
  Au      7.630728      7.512762      4.919069
  Au      5.408540      8.414101      6.402770
  Au      6.121288     10.082427      8.516821
  Au      7.954468      9.872521      6.427706
  Au      9.659469      6.804160      9.172510
  Au      9.548137      4.128424      8.458416
  Au      8.725196      9.289336      9.137800
  Au      7.163516      5.367871      9.147072
  Au      5.486355      7.426775      9.103470
  Au      8.780509      5.500642      6.265703
  Mn      7.637021      7.460414      7.565001
11
Coordinates from ORCA-job pbe E -2509.026913597834
  Au      7.619228      7.529217      4.912286
  Au      5.404297      8.418240      6.400966
  Au      6.145802     10.038060      8.532703
  Au      7.955093      9.878203      6.427395
  Au      9.653193      6.804881      9.191697
  Au      9.544643      4.135785      8.470568
  Au      8.782321      9.310592      9.099585
  Au      7.165359      5.372580      9.165246
  Au      5.440787      7.388537      9.064778
  Au      8.769194      5.520616      6.271990
  Mn      7.635312      7.462722      7.579124
11
Coordinates from ORCA-job pbe E -2509.027390737836
  Au      7.615140      7.533395      4.909404
  Au      5.403873      8.430243      6.398707
  Au      6.162758     10.007444      8.554071
  Au      7.947006      9.884079      6.426323
  Au      9.658540      6.812031      9.190120
  Au      9.545504      4.135652      8.485322
  Au      8.836632      9.329441      9.064914
  Au      7.156980      5.369964      9.162271
  Au      5.398334      7.351435      9.029371
  Au      8.758975      5.537251      6.297225
  Mn      7.631483      7.468499      7.598610
11
Coordinates from ORCA-job pbe E -2509.028008856927
  Au      7.617280      7.528301      4.912159
  Au      5.403531      8.449140      6.398801
  Au      6.174270      9.986889      8.576237
  Au      7.932289      9.892685      6.426112
  Au      9.670109      6.811646      9.165830
  Au      9.548750      4.131020      8.512449
  Au      8.879360      9.348500      9.035921
  Au      7.151749      5.359160      9.136062
  Au      5.361975      7.323465      8.999580
  Au      8.752117      5.547242      6.334246
  Mn      7.623798      7.481386      7.618940
11
Coordinates from ORCA-job pbe E -2509.028726413869
  Au      7.624069      7.516514      4.928935
  Au      5.401513      8.469952      6.397113
  Au      6.181899      9.974328      8.593110
  Au      7.916020      9.903103      6.423180
  Au      9.680790      6.810596      9.126690
  Au      9.556075      4.118850      8.538590
  Au      8.909893      9.362205      9.017557
  Au      7.149161      5.348447      9.095139
  Au      5.334957      7.303813      8.979803
  Au      8.749933      5.548233      6.377858
  Mn      7.610916      7.503392      7.638362
11
Coordinates from ORCA-job pbe E -2509.029510300521
  Au      7.630538      7.504686      4.958868
  Au      5.391754      8.489455      6.390866
  Au      6.193944      9.954150      8.606942
  Au      7.905180      9.919723      6.415708
  Au      9.687045      6.805176      9.092091
  Au      9.563581      4.105830      8.563445
  Au      8.941526      9.376946      9.000078
  Au      7.151398      5.341057      9.059189
  Au      5.307276      7.281894      8.960989
  Au      8.749627      5.546652      6.412861
  Mn      7.593358      7.533865      7.655300
11
Coordinates from ORCA-job pbe E -2509.030292559535
  Au      7.633253      7.500293      4.994774
  Au      5.377258      8.506545      6.381000
  Au      6.214210      9.920197      8.616915
  Au      7.897893      9.939543      6.404258
  Au      9.688987      6.805663      9.067992
  Au      9.567756      4.097611      8.588073
  Au      8.976304      9.383630      8.983725
  Au      7.152311      5.339374      9.035107
  Au      5.283148      7.254852      8.942142
  Au      8.750593      5.543153      6.435327
  Mn      7.573515      7.568572      7.667024
11
Coordinates from ORCA-job pbe E -2509.030815171660
  Au      7.631240      7.501903      5.016357
  Au      5.363373      8.522076      6.370168
  Au      6.240581      9.874086      8.636874
  Au      7.892482      9.959898      6.393412
  Au      9.689078      6.807297      9.060494
  Au      9.568201      4.096826      8.614773
  Au      9.019516      9.391394      8.957009
  Au      7.149871      5.341616      9.028110
  Au      5.255873      7.219684      8.913981
  Au      8.747651      5.547757      6.449156
  Mn      7.557362      7.596896      7.676004
11
Coordinates from ORCA-job pbe E -2509.031033923197
  Au      7.629451      7.505190      5.021724
  Au      5.355006      8.537922      6.365488
  Au      6.266121      9.829088      8.664940
  Au      7.882180      9.975678      6.387961
  Au      9.686642      6.810333      9.058848
  Au      9.566827      4.097413      8.640674
  Au      9.063733      9.398963      8.922159
  Au      7.151327      5.343716      9.027371
  Au      5.225822      7.187768      8.876487
  Au      8.741717      5.557169      6.467110
  Mn      7.546400      7.616193      7.683576
11
Coordinates from ORCA-job pbe E -2509.031106584440
  Au      7.629697      7.503661      5.023134
  Au      5.357461      8.547635      6.354937
  Au      6.270806      9.819426      8.685226
  Au      7.872913      9.981342      6.378453
  Au      9.690524      6.813492      9.058424
  Au      9.566532      4.098677      8.652403
  Au      9.073691      9.393506      8.918084
  Au      7.143453      5.344927      9.029359
  Au      5.226395      7.174893      8.872726
  Au      8.742277      5.556833      6.467865
  Mn      7.541479      7.625041      7.675727
11
Coordinates from ORCA-job pbe E -2509.031218205335
  Au      7.631815      7.499373      5.015012
  Au      5.364695      8.560281      6.358037
  Au      6.278724      9.803963      8.707023
  Au      7.859070      9.982354      6.382232
  Au      9.690100      6.813179      9.062744
  Au      9.565498      4.100864      8.658865
  Au      9.090889      9.401282      8.893894
  Au      7.142811      5.346167      9.034585
  Au      5.211933      7.163472      8.848789
  Au      8.737884      5.564358      6.478663
  Mn      7.541806      7.624140      7.676494
11
Coordinates from ORCA-job pbe E -2509.031270280055
  Au      7.637391      7.494088      5.010386
  Au      5.373368      8.569369      6.361472
  Au      6.278885      9.803711      8.722363
  Au      7.843767      9.979634      6.384654
  Au      9.694168      6.818088      9.057888
  Au      9.562046      4.101495      8.663353
  Au      9.091466      9.399558      8.886641
  Au      7.142550      5.343412      9.032408
  Au      5.209682      7.165778      8.839345
  Au      8.738063      5.563324      6.486730
  Mn      7.543840      7.620975      7.671097
11
Coordinates from ORCA-job pbe E -2509.031293596888
  Au      7.639432      7.490410      5.013973
  Au      5.374430      8.574239      6.361743
  Au      6.279496      9.801706      8.727781
  Au      7.839785      9.981854      6.385845
  Au      9.697337      6.816243      9.054236
  Au      9.562546      4.101958      8.665416
  Au      9.091448      9.403626      8.882118
  Au      7.138290      5.343134      9.029461
  Au      5.208560      7.164862      8.836522
  Au      8.740228      5.560236      6.489920
  Mn      7.543674      7.621165      7.669323
11
Coordinates from ORCA-job pbe E -2509.031321002170
  Au      7.642786      7.487909      5.021696
  Au      5.371404      8.578999      6.362576
  Au      6.281664      9.798015      8.733751
  Au      7.835661      9.986743      6.386309
  Au      9.702440      6.818024      9.047277
  Au      9.561789      4.102414      8.670967
  Au      9.093260      9.406526      8.877981
  Au      7.134367      5.340982      9.024345
  Au      5.204368      7.165151      8.831907
  Au      8.743804      5.553504      6.492021
  Mn      7.543683      7.621167      7.667507
11
Coordinates from ORCA-job pbe E -2509.031342303653
  Au      7.644848      7.487975      5.028075
  Au      5.370059      8.584671      6.364348
  Au      6.285804      9.790687      8.740563
  Au      7.829676      9.990992      6.387848
  Au      9.707598      6.822494      9.040676
  Au      9.559027      4.105093      8.679621
  Au      9.097317      9.409132      8.871400
  Au      7.128211      5.340418      9.019787
  Au      5.199720      7.162975      8.825120
  Au      8.747302      5.547212      6.492325
  Mn      7.545664      7.617783      7.666575
11
Coordinates from ORCA-job pbe E -2509.031353434187
  Au      7.645762      7.489046      5.031779
  Au      5.369298      8.587603      6.365047
  Au      6.289324      9.784824      8.745126
  Au      7.826188      9.993231      6.388205
  Au      9.709723      6.825543      9.038846
  Au      9.557081      4.107382      8.684616
  Au      9.102111      9.411748      8.866103
  Au      7.125935      5.340034      9.019255
  Au      5.193829      7.161273      8.819102
  Au      8.748014      5.545108      6.490146
  Mn      7.547961      7.613641      7.668114
11
Coordinates from ORCA-job pbe E -2509.031358842873
  Au      7.645486      7.490233      5.032350
  Au      5.369731      8.588958      6.365212
  Au      6.291299      9.781378      8.746646
  Au      7.824404      9.994111      6.388382
  Au      9.709503      6.826977      9.037751
  Au      9.556136      4.108178      8.687516
  Au      9.104022      9.412483      8.863655
  Au      7.125010      5.340995      9.018472
  Au      5.192304      7.159907      8.816845
  Au      8.748017      5.544950      6.489697
  Mn      7.549316      7.611264      7.669813
11
Coordinates from ORCA-job pbe E -2509.031363080614
  Au      7.645369      7.490837      5.032695
  Au      5.370956      8.589582      6.364390
  Au      6.292346      9.779563      8.746707
  Au      7.822963      9.994071      6.387532
  Au      9.709002      6.827272      9.039007
  Au      9.555898      4.108345      8.686824
  Au      9.104836      9.413219      8.862771
  Au      7.125147      5.341238      9.019838
  Au      5.191132      7.159801      8.816165
  Au      8.747441      5.545715      6.488666
  Mn      7.550136      7.609790      7.671744
11
Coordinates from ORCA-job pbe E -2509.031369421739
  Au      7.645374      7.491218      5.032663
  Au      5.371686      8.589215      6.362930
  Au      6.291985      9.780130      8.745654
  Au      7.822572      9.994510      6.386083
  Au      9.708223      6.826423      9.038876
  Au      9.556226      4.107539      8.686190
  Au      9.103739      9.413074      8.863683
  Au      7.125931      5.341053      9.019448
  Au      5.192043      7.160710      8.817897
  Au      8.746907      5.546462      6.488488
  Mn      7.550540      7.609098      7.674427
11
Coordinates from ORCA-job pbe E -2509.031378088273
  Au      7.646218      7.491052      5.033860
  Au      5.373465      8.589443      6.361121
  Au      6.291486      9.780816      8.744613
  Au      7.820592      9.994810      6.384231
  Au      9.709238      6.825781      9.038570
  Au      9.556536      4.106638      8.684375
  Au      9.102680      9.413061      8.863987
  Au      7.125322      5.339542      9.018973
  Au      5.192834      7.161882      8.819438
  Au      8.746445      5.547013      6.489262
  Mn      7.550410      7.609396      7.677909
11
Coordinates from ORCA-job pbe E -2509.031389334640
  Au      7.647567      7.491113      5.035615
  Au      5.373842      8.588157      6.359887
  Au      6.289476      9.784092      8.743279
  Au      7.820020      9.995679      6.382942
  Au      9.712169      6.824787      9.035694
  Au      9.556591      4.105627      8.684305
  Au      9.101510      9.412580      8.864131
  Au      7.123953      5.336312      9.015695
  Au      5.194261      7.163007      8.821385
  Au      8.746246      5.547047      6.491231
  Mn      7.549592      7.611034      7.682174
11
Coordinates from ORCA-job pbe E -2509.031398998416
  Au      7.649399      7.491297      5.038593
  Au      5.374539      8.587533      6.359962
  Au      6.288161      9.786184      8.744145
  Au      7.818311      9.995979      6.382890
  Au      9.717442      6.825374      9.031526
  Au      9.555881      4.105925      8.686286
  Au      9.103185      9.412777      8.861264
  Au      7.120213      5.332251      9.011354
  Au      5.193396      7.162304      8.820084
  Au      8.746077      5.546844      6.493938
  Mn      7.548622      7.612965      7.686296
11
Coordinates from ORCA-job pbe E -2509.031402810079
  Au      7.649935      7.492098      5.040465
  Au      5.374170      8.586055      6.361026
  Au      6.287548      9.787229      8.744741
  Au      7.818847      9.995573      6.383974
  Au      9.720858      6.826372      9.028312
  Au      9.554975      4.106765      8.688873
  Au      9.105626      9.413320      8.858840
  Au      7.117811      5.330048      9.008072
  Au      5.191637      7.160796      8.818127
  Au      8.745828      5.546947      6.495200
  Mn      7.547991      7.614231      7.688708
11
Coordinates from ORCA-job pbe E -2509.031403805926
  Au      7.649903      7.492214      5.041071
  Au      5.374665      8.585778      6.361669
  Au      6.287644      9.787052      8.745871
  Au      7.818870      9.994527      6.384687
  Au      9.722397      6.827420      9.026780
  Au      9.554540      4.107684      8.690275
  Au      9.107276      9.414055      8.857770
  Au      7.116350      5.329540      9.006685
  Au      5.189956      7.159817      8.816697
  Au      8.745639      5.547098      6.495402
  Mn      7.547986      7.614248      7.689430
11
Coordinates from ORCA-job pbe E -2509.031404440364
  Au      7.649390      7.492100      5.040785
  Au      5.374647      8.585141      6.362137
  Au      6.287774      9.786831      8.745811
  Au      7.819984      9.993597      6.385285
  Au      9.722517      6.828016      9.026156
  Au      9.554388      4.108184      8.690628
  Au      9.107798      9.414537      8.858260
  Au      7.116159      5.329925      9.006185
  Au      5.189120      7.159444      8.816486
  Au      8.745533      5.547289      6.495066
  Mn      7.547917      7.614367      7.689538
