15
E=  -1600.06395797;c=0;m=3
Au      7.330476374768540      4.853004412130390      7.386106136911400
Au      8.166301801369940      8.656471934853551      5.050382314974410
Au     10.112834300815100      8.379298797575000      7.115816457396780
Au      9.274646721083620      6.111564724190300      5.603513913594000
Au      8.774584881157530      8.338295173028101      9.610935688650610
Au      7.915044980754630     10.090386925481431      7.478347641220950
Au      9.740225650372651      5.902911028847590      8.388045820325470
Au      6.830244665027120      7.908356492210660     11.515182030261119
Au      6.505213344044150      6.366974347522710      5.088050093215120
Au      5.657989292867030      8.691278432672091      6.550433056535580
Au      4.785254363653710      6.681106270131840      9.976795750011870
Au      4.745917465258140      6.078129067251830      7.282934678025020
Au      7.523223346424930      5.535928236638470     10.116490800233180
Au      5.852128952235420      9.365973739700779      9.282705145845060
Fe      6.792638700167470      7.204841317765240      8.358469652799560
