15
Coordinates from ORCA-job pbe E -3165.054376320929
  Au      7.320952      4.743757      7.300667
  Au      8.111280      8.589902      5.182226
  Au     10.132742      8.406023      7.157436
  Au      9.193107      6.152401      5.713555
  Au      9.130904      8.517057      9.746721
  Au      7.828919      9.950889      7.644291
  Au      9.549153      5.990002      8.504825
  Au      6.990198      7.917031     11.302295
  Au      6.416314      6.342855      5.136148
  Au      5.577901      8.722155      6.447612
  Au      4.737691      6.691244     10.049395
  Au      4.837558      6.135973      7.401542
  Au      7.263057      5.482849      9.960390
  Au      5.681212      9.182082      9.175062
  Fe      7.235736      7.340300      8.082046
15
Coordinates from ORCA-job pbe E -3165.054422680121
  Au      7.321130      4.743204      7.299199
  Au      8.113643      8.591316      5.179904
  Au     10.135682      8.406215      7.157590
  Au      9.193254      6.151800      5.709225
  Au      9.129661      8.517391      9.744671
  Au      7.829611      9.955009      7.644375
  Au      9.552036      5.986998      8.507134
  Au      6.989405      7.919695     11.304332
  Au      6.415324      6.342402      5.136454
  Au      5.578242      8.721860      6.450169
  Au      4.735704      6.691748     10.052809
  Au      4.836703      6.134954      7.400651
  Au      7.261474      5.482243      9.961741
  Au      5.677953      9.179453      9.175864
  Fe      7.236903      7.340232      8.080092
15
Coordinates from ORCA-job pbe E -3165.054512869578
  Au      7.323747      4.746379      7.297325
  Au      8.119570      8.592814      5.180842
  Au     10.136160      8.402383      7.160081
  Au      9.189454      6.154051      5.703430
  Au      9.122111      8.515685      9.734220
  Au      7.828938      9.962019      7.644743
  Au      9.554967      5.979880      8.511200
  Au      6.989671      7.927205     11.303539
  Au      6.415582      6.344211      5.143451
  Au      5.583036      8.719630      6.458156
  Au      4.734310      6.693009     10.057521
  Au      4.837149      6.133642      7.401273
  Au      7.257848      5.483339      9.960708
  Au      5.672317      9.170095      9.175701
  Fe      7.241867      7.340181      8.072020
15
Coordinates from ORCA-job pbe E -3165.054611471040
  Au      7.327561      4.746510      7.297883
  Au      8.126512      8.598447      5.179794
  Au     10.137739      8.397121      7.162180
  Au      9.189813      6.154700      5.697987
  Au      9.114373      8.513968      9.727007
  Au      7.824994      9.969955      7.644901
  Au      9.557276      5.971185      8.513563
  Au      6.990535      7.934710     11.306934
  Au      6.415220      6.345934      5.146568
  Au      5.585614      8.719936      6.460420
  Au      4.730634      6.691285     10.063307
  Au      4.833933      6.131286      7.407243
  Au      7.254061      5.486663      9.958464
  Au      5.669789      9.162425      9.176582
  Fe      7.248671      7.340396      8.061376
15
Coordinates from ORCA-job pbe E -3165.054830927755
  Au      7.332353      4.745270      7.298743
  Au      8.136243      8.608502      5.181010
  Au     10.136148      8.386768      7.165416
  Au      9.190302      6.156250      5.692351
  Au      9.101085      8.509792      9.717197
  Au      7.816322      9.980911      7.643099
  Au      9.560800      5.957377      8.514355
  Au      6.989668      7.944266     11.316319
  Au      6.415432      6.350423      5.155427
  Au      5.588547      8.720274      6.458917
  Au      4.725249      6.687054     10.073372
  Au      4.833298      6.129252      7.418495
  Au      7.246807      5.497880      9.953715
  Au      5.671132      9.149454      9.177401
  Fe      7.263339      7.341048      8.038392
15
Coordinates from ORCA-job pbe E -3165.055156262509
  Au      7.335067      4.740200      7.300763
  Au      8.141799      8.617856      5.182325
  Au     10.131318      8.378721      7.168027
  Au      9.192183      6.156395      5.690469
  Au      9.088581      8.504572      9.714592
  Au      7.808029      9.988068      7.640364
  Au      9.562847      5.947037      8.512828
  Au      6.987137      7.948065     11.328426
  Au      6.416407      6.354285      5.163360
  Au      5.587169      8.722845      6.451622
  Au      4.720552      6.682591     10.082011
  Au      4.835762      6.130070      7.431834
  Au      7.241295      5.513860      9.946927
  Au      5.679405      9.138051      9.176944
  Fe      7.279173      7.341905      8.013718
15
Coordinates from ORCA-job pbe E -3165.055602865709
  Au      7.334091      4.729543      7.303225
  Au      8.139149      8.622936      5.183833
  Au     10.121860      8.375687      7.170343
  Au      9.194360      6.154671      5.694656
  Au      9.079564      8.499107      9.724482
  Au      7.802979      9.987367      7.636484
  Au      9.562752      5.944712      8.507482
  Au      6.982125      7.942679     11.344145
  Au      6.418051      6.356902      5.169231
  Au      5.579242      8.728968      6.436429
  Au      4.716570      6.678951     10.088242
  Au      4.844256      6.135662      7.445097
  Au      7.240082      5.534685      9.937734
  Au      5.696810      9.129814      9.173375
  Fe      7.294833      7.342835      7.989449
15
Coordinates from ORCA-job pbe E -3165.056032151476
  Au      7.334349      4.720148      7.304713
  Au      8.137679      8.627243      5.184234
  Au     10.113781      8.372939      7.173755
  Au      9.195399      6.153250      5.696322
  Au      9.068745      8.493525      9.730305
  Au      7.799983      9.989351      7.632311
  Au      9.564365      5.940523      8.503816
  Au      6.975912      7.939594     11.358686
  Au      6.419211      6.359694      5.176088
  Au      5.573256      8.734481      6.425631
  Au      4.711800      6.676653     10.097095
  Au      4.853209      6.141601      7.457267
  Au      7.237562      5.554599      9.929061
  Au      5.710623      9.117348      9.170813
  Fe      7.310851      7.343572      7.964113
15
Coordinates from ORCA-job pbe E -3165.056548077928
  Au      7.332360      4.707588      7.303474
  Au      8.130324      8.625411      5.182886
  Au     10.105782      8.375624      7.179338
  Au      9.194201      6.150574      5.699040
  Au      9.060169      8.489438      9.743129
  Au      7.803916      9.988565      7.626828
  Au      9.566713      5.941283      8.500351
  Au      6.966943      7.932787     11.374043
  Au      6.418979      6.360917      5.180803
  Au      5.563633      8.741949      6.415676
  Au      4.705504      6.677156     10.107905
  Au      4.868300      6.152018      7.465541
  Au      7.238629      5.575126      9.919594
  Au      5.725949      9.102079      9.165672
  Fe      7.325324      7.344004      7.939929
15
Coordinates from ORCA-job pbe E -3165.057088838788
  Au      7.331916      4.696873      7.301311
  Au      8.125097      8.623501      5.181820
  Au     10.099291      8.377012      7.185536
  Au      9.192032      6.148956      5.699886
  Au      9.050199      8.485328      9.751201
  Au      7.807644      9.990189      7.621844
  Au      9.570353      5.940233      8.498329
  Au      6.957752      7.928635     11.388114
  Au      6.418597      6.362114      5.185541
  Au      5.556029      8.748685      6.409619
  Au      4.698143      6.677741     10.120460
  Au      4.882945      6.162388      7.474783
  Au      7.237888      5.594587      9.910720
  Au      5.738907      9.083808      9.160389
  Fe      7.339930      7.344471      7.914655
15
Coordinates from ORCA-job pbe E -3165.057721182018
  Au      7.332476      4.688233      7.295753
  Au      8.119824      8.618277      5.179803
  Au     10.097445      8.380772      7.193624
  Au      9.187665      6.147691      5.698533
  Au      9.040790      8.482986      9.755979
  Au      7.815133      9.995752      7.616837
  Au      9.576770      5.938363      8.499526
  Au      6.947816      7.927283     11.400694
  Au      6.416067      6.360990      5.187569
  Au      5.550036      8.754263      6.411245
  Au      4.686149      6.680116     10.137379
  Au      4.898724      6.174411      7.481508
  Au      7.237211      5.609867      9.902402
  Au      5.747945      9.060684      9.153859
  Fe      7.352675      7.344833      7.889496
15
Coordinates from ORCA-job pbe E -3165.058366017231
  Au      7.335086      4.682276      7.292380
  Au      8.117678      8.616008      5.178497
  Au     10.095416      8.382654      7.200261
  Au      9.185220      6.146973      5.697346
  Au      9.028557      8.478613      9.755504
  Au      7.818760     10.002876      7.612770
  Au      9.582859      5.934021      8.500434
  Au      6.939708      7.927310     11.411952
  Au      6.414426      6.359801      5.189890
  Au      5.547764      8.759495      6.413082
  Au      4.674351      6.681451     10.153924
  Au      4.909770      6.183773      7.491269
  Au      7.234274      5.624673      9.894182
  Au      5.756407      9.039127      9.149661
  Fe      7.366448      7.345470      7.863057
15
Coordinates from ORCA-job pbe E -3165.059091527249
  Au      7.341212      4.682933      7.290464
  Au      8.118819      8.614717      5.176318
  Au     10.098443      8.385940      7.205587
  Au      9.184775      6.146301      5.695611
  Au      9.014318      8.473101      9.746427
  Au      7.820178     10.015540      7.610211
  Au      9.590984      5.925819      8.503017
  Au      6.934103      7.930767     11.420652
  Au      6.410825      6.355834      5.189619
  Au      5.553331      8.763261      6.420675
  Au      4.658530      6.682095     10.171706
  Au      4.912360      6.189727      7.502521
  Au      7.229408      5.632922      9.886563
  Au      5.760076      9.019207      9.148386
  Fe      7.379363      7.346356      7.836450
15
Coordinates from ORCA-job pbe E -3165.059796326949
  Au      7.346118      4.681575      7.290646
  Au      8.119444      8.614066      5.174664
  Au     10.097654      8.387552      7.209910
  Au      9.185132      6.145884      5.695436
  Au      8.998364      8.465926      9.741253
  Au      7.819773     10.024090      7.607849
  Au      9.596586      5.919437      8.503328
  Au      6.928370      7.931550     11.430368
  Au      6.408083      6.353751      5.192029
  Au      5.556792      8.768384      6.422095
  Au      4.647692      6.682041     10.186733
  Au      4.917391      6.196070      7.515013
  Au      7.224507      5.645898      9.877938
  Au      5.767093      9.001139      9.147775
  Fe      7.393725      7.347156      7.809171
15
Coordinates from ORCA-job pbe E -3165.060542933555
  Au      7.352675      4.683480      7.294920
  Au      8.121926      8.614972      5.172271
  Au     10.098626      8.389280      7.212094
  Au      9.188496      6.145032      5.696623
  Au      8.980668      8.456671      9.735307
  Au      7.815240     10.031188      7.607896
  Au      9.600600      5.912879      8.502144
  Au      6.925440      7.932152     11.440624
  Au      6.402806      6.350811      5.194375
  Au      5.564376      8.774865      6.419538
  Au      4.639463      6.679434     10.198077
  Au      4.915991      6.198975      7.530152
  Au      7.218861      5.657598      9.868614
  Au      5.772852      8.989236      9.149666
  Fe      7.408706      7.347949      7.781910
15
Coordinates from ORCA-job pbe E -3165.061264057491
  Au      7.356881      4.681319      7.295746
  Au      8.122656      8.614607      5.170794
  Au     10.097458      8.390159      7.215537
  Au      9.189849      6.144795      5.697076
  Au      8.964625      8.448901      9.732696
  Au      7.812754     10.036416      7.607064
  Au      9.604403      5.907873      8.501252
  Au      6.919844      7.931928     11.451787
  Au      6.398611      6.349343      5.198174
  Au      5.567073      8.780461      6.417010
  Au      4.632487      6.678281     10.210566
  Au      4.922208      6.205288      7.543379
  Au      7.213200      5.673219      9.859793
  Au      5.781098      8.973435      9.148847
  Fe      7.423581      7.348498      7.754488
15
Coordinates from ORCA-job pbe E -3165.061996956550
  Au      7.359824      4.677271      7.297425
  Au      8.123434      8.614910      5.169468
  Au     10.097647      8.390839      7.218329
  Au      9.192773      6.144254      5.698549
  Au      8.951393      8.441651      9.735614
  Au      7.807733     10.036073      7.609480
  Au      9.605005      5.905946      8.499286
  Au      6.915992      7.930725     11.465612
  Au      6.390378      6.347537      5.202941
  Au      5.567515      8.787156      6.407494
  Au      4.631304      6.675060     10.218112
  Au      4.928309      6.210186      7.556172
  Au      7.206822      5.691623      9.850172
  Au      5.789944      8.962694      9.147926
  Fe      7.438651      7.348597      7.727629
15
Coordinates from ORCA-job pbe E -3165.062715656280
  Au      7.362539      4.672631      7.295818
  Au      8.123369      8.614124      5.168425
  Au     10.096361      8.391839      7.222445
  Au      9.193353      6.143994      5.698576
  Au      8.938582      8.435722      9.735511
  Au      7.806558     10.039401      7.608090
  Au      9.607206      5.902459      8.499046
  Au      6.909167      7.930437     11.478948
  Au      6.385978      6.346485      5.206703
  Au      5.567104      8.791980      6.404340
  Au      4.624237      6.674248     10.231684
  Au      4.938294      6.217643      7.567201
  Au      7.201683      5.709206      9.840979
  Au      5.799188      8.945395      9.146052
  Fe      7.453106      7.348956      7.700392
15
Coordinates from ORCA-job pbe E -3165.063414700918
  Au      7.362949      4.664008      7.291615
  Au      8.122830      8.614324      5.167068
  Au     10.097684      8.394155      7.227646
  Au      9.194832      6.142538      5.697824
  Au      8.932304      8.433114      9.740508
  Au      7.805745     10.040042      7.607692
  Au      9.607157      5.901314      8.500377
  Au      6.902546      7.930465     11.494741
  Au      6.377992      6.344675      5.210225
  Au      5.562327      8.795979      6.399546
  Au      4.618720      6.672821     10.243713
  Au      4.949704      6.224519      7.574800
  Au      7.195803      5.729289      9.831411
  Au      5.809306      8.928292      9.143340
  Fe      7.466826      7.348986      7.673703
15
Coordinates from ORCA-job pbe E -3165.064071289330
  Au      7.366615      4.661309      7.290962
  Au      8.123780      8.614800      5.164684
  Au     10.097520      8.396314      7.232378
  Au      9.196521      6.141176      5.697070
  Au      8.918762      8.426796      9.738797
  Au      7.804635     10.044404      7.605274
  Au      9.608688      5.897020      8.500486
  Au      6.896147      7.930740     11.506732
  Au      6.374157      6.343330      5.212593
  Au      5.563363      8.800578      6.398892
  Au      4.609915      6.672263     10.257971
  Au      4.956033      6.230646      7.587599
  Au      7.190959      5.746042      9.821777
  Au      5.818447      8.909656      9.142456
  Fe      7.481181      7.349447      7.646540
15
Coordinates from ORCA-job pbe E -3165.064683769814
  Au      7.369046      4.657400      7.289296
  Au      8.124980      8.615914      5.162175
  Au     10.099162      8.399041      7.237899
  Au      9.198981      6.139350      5.695685
  Au      8.909606      8.422460      9.740460
  Au      7.803065     10.045925      7.603829
  Au      9.608870      5.894707      8.500514
  Au      6.890514      7.931427     11.520133
  Au      6.367832      6.341799      5.215720
  Au      5.562320      8.804074      6.397035
  Au      4.602309      6.671018     10.270882
  Au      4.961991      6.235680      7.597754
  Au      7.184561      5.764660      9.812277
  Au      5.828180      8.891421      9.141139
  Fe      7.495307      7.349645      7.619410
15
Coordinates from ORCA-job pbe E -3165.065236302279
  Au      7.371794      4.655355      7.288685
  Au      8.126957      8.616903      5.158811
  Au     10.100687      8.401791      7.243712
  Au      9.201693      6.137651      5.693526
  Au      8.899115      8.417388      9.740954
  Au      7.801334     10.047834      7.602180
  Au      9.609466      5.892135      8.500100
  Au      6.885150      7.932143     11.532409
  Au      6.362299      6.340455      5.218780
  Au      5.562391      8.807073      6.396178
  Au      4.593999      6.670199     10.284394
  Au      4.966727      6.240411      7.608479
  Au      7.177836      5.783026      9.802996
  Au      5.837792      8.872257      9.140758
  Fe      7.509485      7.349901      7.592248
15
Coordinates from ORCA-job pbe E -3165.065714422826
  Au      7.374285      4.653713      7.288173
  Au      8.129363      8.617845      5.154863
  Au     10.102669      8.404839      7.249908
  Au      9.204915      6.135878      5.690636
  Au      8.890054      8.412860      9.742245
  Au      7.799374     10.048491      7.600859
  Au      9.609468      5.890447      8.499360
  Au      6.880293      7.933010     11.545493
  Au      6.356096      6.339043      5.221782
  Au      5.562476      8.809456      6.395349
  Au      4.585283      6.669158     10.297675
  Au      4.970746      6.244624      7.618377
  Au      7.170767      5.801673      9.793885
  Au      5.847380      8.853350      9.140394
  Fe      7.523556      7.350134      7.565210
15
Coordinates from ORCA-job pbe E -3165.066106174196
  Au      7.376747      4.652661      7.287972
  Au      8.132300      8.618785      5.149884
  Au     10.104941      8.408179      7.256620
  Au      9.208681      6.133903      5.686757
  Au      8.880953      8.408264      9.743693
  Au      7.797245     10.049009      7.599723
  Au      9.609292      5.888978      8.498605
  Au      6.875682      7.933788     11.558088
  Au      6.349442      6.337435      5.224538
  Au      5.562846      8.811425      6.395016
  Au      4.576659      6.668444     10.310803
  Au      4.974379      6.248695      7.628244
  Au      7.163263      5.820698      9.785146
  Au      5.856793      8.833886      9.140751
  Fe      7.537501      7.350371      7.538369
15
Coordinates from ORCA-job pbe E -3165.066400198335
  Au      7.379287      4.652230      7.287668
  Au      8.135679      8.619451      5.144464
  Au     10.107391      8.411830      7.263673
  Au      9.212822      6.131879      5.682387
  Au      8.873429      8.404212      9.745864
  Au      7.794943     10.048384      7.598783
  Au      9.608335      5.888383      8.497385
  Au      6.871744      7.934809     11.571827
  Au      6.341958      6.335666      5.227124
  Au      5.563708      8.812840      6.394677
  Au      4.567231      6.667325     10.323689
  Au      4.977178      6.252124      7.637277
  Au      7.155757      5.839565      9.776618
  Au      5.865902      8.815210      9.141069
  Fe      7.551360      7.350613      7.511704
15
Coordinates from ORCA-job pbe E -3165.066587450334
  Au      7.381859      4.652185      7.287528
  Au      8.139718      8.620181      5.137813
  Au     10.110159      8.415982      7.271594
  Au      9.217590      6.129491      5.676814
  Au      8.865657      8.399961      9.748254
  Au      7.792433     10.048076      7.598239
  Au      9.607441      5.887738      8.496459
  Au      6.868065      7.935686     11.584137
  Au      6.333540      6.333497      5.229447
  Au      5.564738      8.813839      6.395036
  Au      4.558474      6.666837     10.336029
  Au      4.979647      6.255384      7.646491
  Au      7.147602      5.858990      9.768627
  Au      5.874773      8.795828      9.142358
  Fe      7.565030      7.350846      7.485383
15
Coordinates from ORCA-job pbe E -3165.061677854193
  Au      7.374383      4.656883      7.276081
  Au      8.157274      8.614644      5.119289
  Au     10.110764      8.428485      7.236609
  Au      9.233381      6.082043      5.697064
  Au      8.858740      8.427911      9.729227
  Au      7.796412     10.060797      7.566615
  Au      9.605748      5.915276      8.505956
  Au      6.822613      7.924740     11.604944
  Au      6.345619      6.342968      5.210166
  Au      5.536710      8.795311      6.390531
  Au      4.530778      6.669263     10.345406
  Au      4.981362      6.278232      7.636465
  Au      7.125002      5.887154      9.757094
  Au      5.953502      8.713182      9.284991
  Fe      7.574411      7.367641      7.443820
15
Coordinates from ORCA-job pbe E -3165.065779291306
  Au      7.374824      4.659056      7.286559
  Au      8.151427      8.613160      5.126644
  Au     10.111293      8.425441      7.239756
  Au      9.229861      6.089876      5.694046
  Au      8.868674      8.421626      9.739955
  Au      7.769761     10.049961      7.572203
  Au      9.607791      5.920983      8.504760
  Au      6.844471      7.919177     11.631282
  Au      6.341709      6.338802      5.212973
  Au      5.557166      8.804059      6.413044
  Au      4.522873      6.663314     10.334406
  Au      4.970462      6.270631      7.634634
  Au      7.130906      5.872506      9.758498
  Au      5.950632      8.749207      9.213178
  Fe      7.574849      7.366729      7.442322
15
Coordinates from ORCA-job pbe E -3165.066083559762
  Au      7.380210      4.654838      7.307544
  Au      8.143357      8.615080      5.126149
  Au     10.114015      8.422071      7.256879
  Au      9.216303      6.093599      5.693337
  Au      8.864810      8.414513      9.746842
  Au      7.777497     10.086904      7.580170
  Au      9.632498      5.910049      8.512284
  Au      6.876305      7.914195     11.602667
  Au      6.335692      6.329047      5.216205
  Au      5.555180      8.817526      6.424814
  Au      4.531169      6.661369     10.308952
  Au      4.944373      6.257733      7.633703
  Au      7.138033      5.844673      9.767425
  Au      5.924186      8.775520      9.173780
  Fe      7.573071      7.367412      7.453508
15
Coordinates from ORCA-job pbe E -3165.065325484356
  Au      7.378475      4.658693      7.304052
  Au      8.146956      8.608338      5.125545
  Au     10.107832      8.413060      7.272659
  Au      9.213840      6.116153      5.680741
  Au      8.869313      8.398036      9.755762
  Au      7.766859     10.050429      7.588150
  Au      9.565610      5.933173      8.526832
  Au      6.887561      7.904049     11.606971
  Au      6.324265      6.339118      5.231246
  Au      5.549479      8.797619      6.436128
  Au      4.571039      6.664833     10.301264
  Au      4.994906      6.263818      7.630956
  Au      7.132682      5.881340      9.756486
  Au      5.931186      8.774390      9.123706
  Fe      7.566697      7.361482      7.463761
15
Coordinates from ORCA-job pbe E -3165.066255176416
  Au      7.389165      4.658752      7.301869
  Au      8.141329      8.605195      5.125172
  Au     10.099458      8.420516      7.274369
  Au      9.215821      6.113524      5.686213
  Au      8.867607      8.406214      9.744420
  Au      7.784787     10.056503      7.575719
  Au      9.588586      5.924920      8.516255
  Au      6.881080      7.912492     11.621793
  Au      6.326591      6.338528      5.231147
  Au      5.555739      8.799162      6.407579
  Au      4.530143      6.662944     10.324891
  Au      4.975398      6.264455      7.625749
  Au      7.133616      5.868404      9.751537
  Au      5.932579      8.768060      9.177890
  Fe      7.584799      7.364860      7.439655
15
Coordinates from ORCA-job pbe E -3165.065710603581
  Au      7.379543      4.642105      7.295254
  Au      8.152681      8.623292      5.124806
  Au     10.119209      8.424213      7.255401
  Au      9.219085      6.096487      5.681998
  Au      8.866972      8.417096      9.762221
  Au      7.781729     10.079120      7.575550
  Au      9.632726      5.907151      8.508736
  Au      6.878759      7.909560     11.609042
  Au      6.335205      6.330680      5.205397
  Au      5.549484      8.817757      6.408685
  Au      4.547265      6.663943     10.319859
  Au      4.946215      6.252581      7.641062
  Au      7.122518      5.859835      9.783503
  Au      5.908817      8.777147      9.170586
  Fe      7.566491      7.363562      7.462161
15
Coordinates from ORCA-job pbe E -3165.066576625868
  Au      7.385013      4.653751      7.300671
  Au      8.147905      8.614412      5.126126
  Au     10.107966      8.420319      7.268463
  Au      9.215508      6.110369      5.681820
  Au      8.865952      8.408098      9.751711
  Au      7.780847     10.063765      7.576511
  Au      9.601808      5.916015      8.514575
  Au      6.883522      7.910413     11.611026
  Au      6.330023      6.336278      5.221778
  Au      5.555109      8.804625      6.411682
  Au      4.544579      6.665071     10.321141
  Au      4.966913      6.258057      7.632415
  Au      7.131006      5.863652      9.765435
  Au      5.917970      8.777165      9.164320
  Fe      7.572576      7.362541      7.456584
15
Coordinates from ORCA-job pbe E -3165.066596123688
  Au      7.387712      4.653436      7.299811
  Au      8.147359      8.614171      5.123385
  Au     10.107938      8.422144      7.274311
  Au      9.216311      6.113149      5.677352
  Au      8.863112      8.405131      9.752923
  Au      7.780055     10.060748      7.576479
  Au      9.599647      5.915623      8.514833
  Au      6.882969      7.910944     11.613605
  Au      6.326245      6.335718      5.224662
  Au      5.557402      8.803115      6.411355
  Au      4.542546      6.666998     10.326131
  Au      4.970964      6.259607      7.636759
  Au      7.126831      5.869308      9.761048
  Au      5.919970      8.772908      9.161916
  Fe      7.577635      7.361530      7.449689
15
Coordinates from ORCA-job pbe E -3165.066618476216
  Au      7.389775      4.653124      7.298051
  Au      8.149183      8.616371      5.124165
  Au     10.107414      8.421557      7.278562
  Au      9.214906      6.118015      5.674606
  Au      8.863358      8.403675      9.752729
  Au      7.781506     10.057684      7.576204
  Au      9.596405      5.913656      8.513342
  Au      6.883332      7.912027     11.611521
  Au      6.325250      6.335598      5.226311
  Au      5.558173      8.800670      6.406980
  Au      4.544391      6.669384     10.329936
  Au      4.973282      6.258306      7.639012
  Au      7.128431      5.868347      9.759850
  Au      5.914761      8.776972      9.159670
  Fe      7.576532      7.359143      7.453318
15
Coordinates from ORCA-job pbe E -3165.066644187393
  Au      7.393401      4.651368      7.294392
  Au      8.150849      8.620149      5.123824
  Au     10.108684      8.422415      7.284391
  Au      9.214176      6.123495      5.668785
  Au      8.860928      8.401172      9.754396
  Au      7.781930     10.055077      7.575876
  Au      9.598553      5.908691      8.509543
  Au      6.880986      7.914631     11.609063
  Au      6.323090      6.333853      5.228537
  Au      5.561221      8.798814      6.403002
  Au      4.543921      6.674069     10.338109
  Au      4.975520      6.257461      7.646167
  Au      7.126558      5.868418      9.757825
  Au      5.909200      8.779277      9.156099
  Fe      7.577682      7.355641      7.454248
15
Coordinates from ORCA-job pbe E -3165.066655775715
  Au      7.395533      4.649268      7.290875
  Au      8.152097      8.623464      5.124706
  Au     10.110354      8.422415      7.286832
  Au      9.213924      6.126515      5.665561
  Au      8.859790      8.399648      9.755761
  Au      7.782162     10.054185      7.576847
  Au      9.601987      5.905149      8.505372
  Au      6.877247      7.917329     11.606343
  Au      6.321923      6.331645      5.230075
  Au      5.562571      8.798229      6.400244
  Au      4.543646      6.677530     10.343249
  Au      4.976357      6.257010      7.651970
  Au      7.126154      5.867719      9.756688
  Au      5.904984      8.781498      9.153741
  Fe      7.577968      7.352926      7.455994
15
Coordinates from ORCA-job pbe E -3165.066658885024
  Au      7.396192      4.648255      7.289636
  Au      8.152121      8.624442      5.125986
  Au     10.110999      8.422034      7.286625
  Au      9.214091      6.126860      5.665113
  Au      8.859699      8.398876      9.755947
  Au      7.782105     10.054441      7.578287
  Au      9.603630      5.904340      8.503470
  Au      6.874985      7.918855     11.604884
  Au      6.321402      6.330533      5.231080
  Au      5.562743      8.798279      6.399945
  Au      4.543358      6.678424     10.344115
  Au      4.976430      6.257281      7.653727
  Au      7.126712      5.867586      9.756073
  Au      5.903937      8.782238      9.152913
  Fe      7.578293      7.352087      7.456457
15
Coordinates from ORCA-job pbe E -3165.066661531889
  Au      7.396958      4.647114      7.288671
  Au      8.151671      8.624974      5.128177
  Au     10.111532      8.421508      7.285579
  Au      9.214449      6.126547      5.664922
  Au      8.860091      8.397623      9.755854
  Au      7.782069     10.054949      7.580872
  Au      9.605074      5.904016      8.501553
  Au      6.872252      7.920864     11.603154
  Au      6.320659      6.329394      5.232426
  Au      5.562700      8.798403      6.400061
  Au      4.543142      6.678856     10.344125
  Au      4.976528      6.257906      7.654914
  Au      7.127737      5.868023      9.755183
  Au      5.902925      8.782967      9.152064
  Fe      7.578911      7.351385      7.456703
