17
E=  -1798.95661289;c=0;m=4
Au     10.457321145013260      7.591036112641090      7.928365392770670
Au      4.549706451788700      8.716222646000441      5.725130292169380
Au      9.126150355228891      5.121300432311970      8.264211879527130
Au      5.979329121790310      6.421079339188290      5.068094102874080
Au      6.628787497455220      4.693928882111650      7.127190241020780
Au      8.586675368647100      6.747498676925120      6.044184473329630
Au      7.303305169563920      8.874508219157921      4.779104106200830
Au      8.776421126852030      9.607652494246629      7.020745567020890
Au      6.330420370059320     10.818190090592299      6.585985381941590
Au      4.422690904691160      9.622214221952770      8.326388152528519
Au      4.833952781410680      6.779582293939180      7.765512944539730
Au      9.364483122291089      6.761119162429890     10.575392112601790
Au      6.877149998832210     10.457646742848640      9.369647385039199
Au      6.749945049377990      5.857165559046810      9.692145136198670
Au      5.054004023814970      7.931445742493520     10.417002477376810
Au      9.477296822468940      9.537097685305190      9.756442770957650
Mn      7.445752020713810      8.244822738808470     10.253493663903811
