13
E=  -1362.86572452;c=0;m=6
Au      6.368746128969200      7.140028391930100      5.806636275982420
Au      5.224620131551170      6.238917040107660      8.293994323165879
Au      4.875895894404150      8.431457419982999     10.064885690234499
Au      6.427690363290300     10.318072025273270      8.396785837013470
Au      6.259296569059150      9.929854183239250      5.589036316940430
Au      4.303403110731340      8.803353313635080      7.368048273240260
Au      7.489624251211390      9.253223069532529     10.780381977029871
Au      9.470513491241370      7.333570978685710      9.958664870565810
Au      6.892794455046700      6.484641040167890     10.569040547463150
Au     10.240674831785650      7.867003984758090      7.241457193632840
Au      8.006221255496159      6.220635075771530      7.841564228995210
Au      9.178840903672340     10.077167612145709      8.594818399553990
Mn      7.992031763541070      8.741405764770160      6.841062026182190
