13
E=  -1382.02636561;c=0;m=5
Au      4.833129110678500      6.856660202483520      8.185924452455639
Au      7.845536211074500      5.122931928810890      5.026119044947100
Au      6.719794495418720      4.939557269150260      7.624431084121100
Au      7.688110147520530      7.423692374460430      8.975492138464240
Au      9.367729181958831      6.111074645323310      7.201383519389230
Au      8.893539778435770      7.854967712806430      5.013856914610720
Au      6.175491813721490      9.531515064111851      8.252907025900591
Au      4.722072838038700     11.047621142716300      6.486420694000460
Au      3.294439957015110      9.158699777545820      8.102356019677019
Au      4.297603135040430      8.278265890099631      5.704937170320960
Au      6.138319667818440      7.113191829213720      4.121624969338880
Au      6.912837382378940      9.710295650303779      5.443892222254400
Fe      6.905663010900120      7.276243742974050      6.550423584519720
