17
E=  -1817.57495500;c=0;m=5
Au      8.078779243336619      7.007772494735930      4.711428382871580
Au      7.903394567647060      5.217731190467000      6.914021918610140
Au      5.495915267391700      5.772232554657510      5.425756123404740
Au      5.560691062492340      8.437165743347570      4.468600115122170
Au      5.357431930595790      4.819715916121880      8.055699531306461
Au      4.773536837344450      6.496599061697440     10.188231730649070
Au      4.027681017259880      7.283840737582670      7.450313882874020
Au      7.417118075281090      9.577835693460409      8.569388569301459
Au      4.671686756932630      9.220414352151741      9.452764601839879
Au      7.447454697411710      5.753714870803830      9.736452010799820
Au      6.801896918575300      8.263117320201321     11.028809488979070
Au      5.134679941200750      9.921816465259161      6.817049542211270
Au      9.370274485895070      7.859868105029610      7.109718224734380
Au      7.810923750177560      9.756603963160350      5.760158975008250
Au      9.337111177994990      8.013921607205390      9.930954548406509
Au     10.035863305304179      5.613123109497380      8.669830487407941
Fe      6.564354255158910      7.669029964620800      6.817946966473250
