19
E=  -2035.44981362;c=0;m=3
Au      5.671700243682410      5.797313281428800      8.882114959254970
Au      3.953411945231610      7.990643243309170      9.199765350710541
Au      7.848660179231610      4.245040834154690      7.949997706267730
Au      5.855266541419850     10.007488029199770      5.561054372584220
Au      3.659294521606650      6.255320349378490      6.983093317371830
Au      3.416210751712620      9.090707824476191      6.602730479343400
Au      4.723157500733230      7.529199728735820      4.658166804097560
Au      6.201027294133100      5.523094094587240      6.007426817388310
Au      7.500527912770410      7.750338103868280      4.799284355902850
Au      9.030268732666491      5.556354531938910      5.635706384337650
Au      9.880343924385921      8.244616934489590      6.407431719015500
Au      8.551582296506400     10.333532044063920      4.948220123066460
Au      7.876753343502670      9.969539990086631      7.633585087577750
Au      5.210509948916450     10.404126351274099      8.330248980440180
Au      6.692269414012580      8.422537479446060      9.710226905907691
Au      8.151072276394251      6.029574252684890     10.229367735423869
Au      9.516866284495981      8.426983060325240      9.302092966741411
Au     10.292313438330449      5.899587251422610      8.188803342330781
Fe      7.946078930267290      6.922476225129500      7.699261302237290
