16
E=  -1708.46837572;c=0;m=6
Au      7.311635493529780     11.400327207038080      8.383214846875941
Au      3.986438732171820      8.184028544250230      8.095584153259100
Au      5.310732893701520      6.510353714805470      9.969873999365490
Au      6.165405454627570      9.147526374276239      9.613078423792810
Au      8.943447094624339      9.572804340180220      9.778022186135280
Au      8.109507808181849      6.889346532222740      9.686758638824569
Au     10.435362919934329      7.728269154617380      8.348093828318500
Au      6.819711210915480      4.644585131959080      8.523356989930271
Au      8.871758416867030      5.801089538058120      7.018413931587740
Au      6.421739117721890      5.172409559137510      5.760999932165810
Au      7.541939399449690      7.773933437150130      5.158946229167940
Au      4.781928058951080      7.442605601661790      5.502015222049520
Au      5.988231630356220      9.695780852636609      6.648939279697160
Au      8.871672116177839      9.749353452589480      6.792455447383760
Au     10.285023691753651      7.723350241261160      5.532844054225980
Fe      6.358542191035900      7.094584818155720      7.595518047220110
