13
E=  -1352.94171820;c=0;m=5
Au      8.745322728120151      8.489044010537381     10.228587411418159
Au      5.057775694592410      6.801730897802280      7.621207655401070
Au      8.077750174344221     10.298904920994900      8.265281285693920
Au      5.813741640620130     11.365829755245329      6.779064227043990
Au      5.270483864184140      9.474789189377750      8.708159938267491
Au      5.900070781838920      7.370340405331450     10.392241183342430
Au      7.119944445751620      5.208257815068870      8.976513212953030
Au      9.615493808212630      6.365306573472230      8.202139105902059
Au      8.173996255624459     10.727216425293230      5.387895443328560
Au      7.442964008104370      6.156724244985110      6.215269002345400
Au      9.276103802506441      8.391170004906069      6.346869635044390
Au      6.274380900441680      8.713416226782410      5.933336176673800
Cr      7.403327685658810      7.732754280203160      8.298870782585690
