13
Coordinates from ORCA-job pbe E -2674.137851273980
  Au      8.745323      8.489044     10.228587
  Au      5.057776      6.801731      7.621208
  Au      8.077750     10.298905      8.265281
  Au      5.813742     11.365830      6.779064
  Au      5.270484      9.474789      8.708160
  Au      5.900071      7.370340     10.392241
  Au      7.119944      5.208258      8.976513
  Au      9.615494      6.365307      8.202139
  Au      8.173996     10.727216      5.387895
  Au      7.442964      6.156724      6.215269
  Au      9.276104      8.391170      6.346870
  Au      6.274381      8.713416      5.933336
  Cr      7.403328      7.732754      8.298871
13
Coordinates from ORCA-job pbe E -2674.140163367969
  Au      8.767316      8.545012     10.239326
  Au      5.049975      6.814013      7.601949
  Au      8.066736     10.306874      8.243855
  Au      5.827766     11.323218      6.810210
  Au      5.276210      9.477813      8.700772
  Au      5.863911      7.365531     10.377626
  Au      7.129233      5.208053      8.992477
  Au      9.616008      6.350465      8.165400
  Au      8.178513     10.687303      5.424896
  Au      7.434631      6.169013      6.196027
  Au      9.269064      8.398204      6.347732
  Au      6.288722      8.703423      5.962760
  Cr      7.403272      7.746565      8.292405
13
Coordinates from ORCA-job pbe E -2674.143070139798
  Au      8.806401      8.638572     10.261002
  Au      5.040322      6.800303      7.588894
  Au      8.066142     10.328986      8.234143
  Au      5.819542     11.342719      6.833919
  Au      5.256177      9.466482      8.726964
  Au      5.795610      7.334673     10.350348
  Au      7.152898      5.200569      9.036251
  Au      9.609110      6.302806      8.101305
  Au      8.209844     10.696358      5.425782
  Au      7.422123      6.155832      6.184228
  Au      9.295124      8.375198      6.347987
  Au      6.291743      8.697861      5.971064
  Cr      7.406318      7.755126      8.293549
13
Coordinates from ORCA-job pbe E -2674.145621212706
  Au      8.838931      8.768447     10.254959
  Au      5.047982      6.771630      7.584514
  Au      8.070046     10.341999      8.236038
  Au      5.832372     11.346792      6.861925
  Au      5.244041      9.462831      8.743670
  Au      5.711769      7.282294     10.298981
  Au      7.186136      5.210144      9.088144
  Au      9.580913      6.235526      8.017281
  Au      8.230011     10.698065      5.449600
  Au      7.404035      6.134195      6.194745
  Au      9.312500      8.364069      6.348109
  Au      6.299325      8.715086      5.976338
  Cr      7.413294      7.764407      8.301130
13
Coordinates from ORCA-job pbe E -2674.147202280813
  Au      8.867376      8.881287     10.250635
  Au      5.074240      6.748668      7.564638
  Au      8.076993     10.371824      8.234475
  Au      5.838498     11.353181      6.876649
  Au      5.244483      9.468316      8.757794
  Au      5.624468      7.218606     10.250301
  Au      7.219892      5.215095      9.143875
  Au      9.552557      6.155794      7.934195
  Au      8.241695     10.702770      5.460632
  Au      7.368332      6.128029      6.211974
  Au      9.326179      8.365715      6.355076
  Au      6.310127      8.715614      5.994546
  Cr      7.426516      7.770587      8.320645
13
Coordinates from ORCA-job pbe E -2674.147869257056
  Au      8.879163      8.909315     10.257981
  Au      5.070993      6.746373      7.554348
  Au      8.073837     10.397060      8.217079
  Au      5.840572     11.352367      6.873055
  Au      5.254123      9.459561      8.768071
  Au      5.595079      7.192995     10.245012
  Au      7.231624      5.217200      9.162370
  Au      9.550245      6.122073      7.912911
  Au      8.237290     10.703210      5.460730
  Au      7.360538      6.126822      6.204835
  Au      9.327152      8.359899      6.370393
  Au      6.315683      8.732018      5.996407
  Cr      7.435055      7.776591      8.332243
13
Coordinates from ORCA-job pbe E -2674.148857973125
  Au      8.895750      8.977833     10.255730
  Au      5.068227      6.761646      7.528516
  Au      8.076860     10.431120      8.205466
  Au      5.817850     11.349384      6.874150
  Au      5.278648      9.447282      8.784433
  Au      5.541906      7.132358     10.234357
  Au      7.252168      5.225544      9.193404
  Au      9.540032      6.049330      7.875988
  Au      8.245333     10.691381      5.443299
  Au      7.346732      6.144680      6.186473
  Au      9.326007      8.353956      6.402783
  Au      6.325562      8.741007      6.009062
  Cr      7.456281      7.789965      8.361775
13
Coordinates from ORCA-job pbe E -2674.149395313602
  Au      8.892555      8.990960     10.246669
  Au      5.064621      6.788624      7.517253
  Au      8.071581     10.447377      8.187787
  Au      5.800848     11.341967      6.870326
  Au      5.307800      9.423758      8.793337
  Au      5.530018      7.109632     10.237891
  Au      7.254259      5.232547      9.193110
  Au      9.539548      6.023463      7.872732
  Au      8.246142     10.679074      5.429020
  Au      7.348312      6.169690      6.171550
  Au      9.312602      8.342028      6.436454
  Au      6.328665      8.749103      6.010234
  Cr      7.474405      7.797262      8.389071
13
Coordinates from ORCA-job pbe E -2674.149729289005
  Au      8.893605      9.018348     10.237944
  Au      5.072820      6.793928      7.515588
  Au      8.066102     10.452003      8.175822
  Au      5.790734     11.342443      6.878206
  Au      5.313323      9.422964      8.800001
  Au      5.511410      7.089021     10.229759
  Au      7.256069      5.231077      9.196525
  Au      9.532722      6.000037      7.857223
  Au      8.257449     10.674711      5.424652
  Au      7.344430      6.177712      6.176291
  Au      9.316000      8.341680      6.444065
  Au      6.328880      8.752535      6.008360
  Cr      7.487811      7.799026      8.411002
13
Coordinates from ORCA-job pbe E -2674.150103058811
  Au      8.887891      9.017178     10.232842
  Au      5.079857      6.804831      7.525336
  Au      8.056550     10.441579      8.163479
  Au      5.776346     11.342139      6.878109
  Au      5.312366      9.428383      8.803930
  Au      5.512636      7.088941     10.236402
  Au      7.239398      5.217718      9.173404
  Au      9.537453      6.000184      7.860024
  Au      8.264561     10.669903      5.413095
  Au      7.352057      6.187465      6.184807
  Au      9.321685      8.344905      6.442931
  Au      6.327831      8.758917      6.002128
  Cr      7.502726      7.793340      8.438946
13
Coordinates from ORCA-job pbe E -2674.150401695206
  Au      8.891228      9.038602     10.233556
  Au      5.093678      6.811183      7.531494
  Au      8.044287     10.428858      8.147441
  Au      5.771752     11.342438      6.880229
  Au      5.304786      9.429166      8.810251
  Au      5.508660      7.092811     10.233655
  Au      7.219804      5.200592      9.147077
  Au      9.538057      6.003001      7.853413
  Au      8.269074     10.669250      5.410133
  Au      7.352128      6.195660      6.198343
  Au      9.330331      8.341793      6.437844
  Au      6.331044      8.757200      6.006157
  Cr      7.516527      7.784930      8.465840
13
Coordinates from ORCA-job pbe E -2674.150747330440
  Au      8.897410      9.055416     10.242870
  Au      5.095747      6.819706      7.543844
  Au      8.032641     10.407727      8.135927
  Au      5.766382     11.343457      6.874635
  Au      5.295587      9.434291      8.808366
  Au      5.521784      7.101485     10.245101
  Au      7.186056      5.178011      9.099670
  Au      9.545552      6.013531      7.866442
  Au      8.267081     10.670969      5.402072
  Au      7.363296      6.199195      6.205176
  Au      9.334162      8.342882      6.426227
  Au      6.336513      8.758896      6.011792
  Cr      7.529145      7.769917      8.493311
13
Coordinates from ORCA-job pbe E -2674.151103804480
  Au      8.914742      9.108449     10.256363
  Au      5.098997      6.827085      7.545382
  Au      8.020879     10.391244      8.122103
  Au      5.762462     11.345448      6.867139
  Au      5.292964      9.429396      8.807214
  Au      5.527502      7.099842     10.253997
  Au      7.149114      5.152973      9.047564
  Au      9.550682      6.011934      7.873664
  Au      8.263421     10.673831      5.394225
  Au      7.364462      6.204130      6.208038
  Au      9.330952      8.337514      6.422592
  Au      6.348708      8.761822      6.027662
  Cr      7.546470      7.751815      8.529491
13
Coordinates from ORCA-job pbe E -2674.151283736546
  Au      8.928154      9.156561     10.262244
  Au      5.093687      6.826735      7.545938
  Au      8.017084     10.390341      8.115500
  Au      5.760484     11.350270      6.866367
  Au      5.300018      9.420811      8.801036
  Au      5.527943      7.092440     10.256261
  Au      7.129530      5.138519      9.019815
  Au      9.550517      6.003535      7.875878
  Au      8.264883     10.679179      5.391176
  Au      7.366030      6.199732      6.204861
  Au      9.319255      8.332576      6.426262
  Au      6.357509      8.765238      6.039665
  Cr      7.556263      7.739550      8.550432
13
Coordinates from ORCA-job pbe E -2674.151345748766
  Au      8.933063      9.176818     10.263479
  Au      5.092596      6.825447      7.539134
  Au      8.017134     10.398376      8.112080
  Au      5.754923     11.352865      6.865459
  Au      5.311371      9.415231      8.799208
  Au      5.528133      7.084686     10.258794
  Au      7.123292      5.134035      9.010460
  Au      9.550430      5.995583      7.877963
  Au      8.268240     10.678806      5.386177
  Au      7.360107      6.199594      6.201221
  Au      9.309958      8.331986      6.435966
  Au      6.360858      8.767611      6.044780
  Cr      7.561250      7.734447      8.560713
13
Coordinates from ORCA-job pbe E -2674.151365376565
  Au      8.931087      9.175187     10.260205
  Au      5.091269      6.822653      7.540318
  Au      8.018996     10.403160      8.113490
  Au      5.754630     11.353042      6.868015
  Au      5.314893      9.414687      8.798679
  Au      5.527721      7.084978     10.255499
  Au      7.126043      5.135203      9.014839
  Au      9.548131      5.995882      7.876134
  Au      8.270173     10.678699      5.387357
  Au      7.360803      6.196457      6.201463
  Au      9.308559      8.332448      6.438928
  Au      6.359764      8.768155      6.043419
  Cr      7.559288      7.734935      8.557090
13
Coordinates from ORCA-job pbe E -2674.151381598967
  Au      8.929228      9.175862     10.256778
  Au      5.090802      6.820603      7.539407
  Au      8.020007     10.410290      8.112544
  Au      5.751511     11.353586      6.869209
  Au      5.321453      9.414415      8.799459
  Au      5.529127      7.084340     10.254473
  Au      7.125143      5.132759      9.013873
  Au      9.546742      5.995309      7.876767
  Au      8.272962     10.677218      5.385849
  Au      7.359398      6.195019      6.201330
  Au      9.306447      8.334551      6.444922
  Au      6.359571      8.768225      6.043706
  Cr      7.558964      7.733308      8.557117
13
Coordinates from ORCA-job pbe E -2674.151388037169
  Au      8.928048      9.178452     10.253883
  Au      5.091277      6.820788      7.538696
  Au      8.019579     10.414442      8.110532
  Au      5.748614     11.353152      6.869448
  Au      5.325861      9.415274      8.801372
  Au      5.529559      7.083064     10.254424
  Au      7.122603      5.129145      9.011388
  Au      9.546318      5.994080      7.876741
  Au      8.274170     10.675695      5.384064
  Au      7.358695      6.195668      6.201560
  Au      9.306965      8.335811      6.449713
  Au      6.360004      8.768617      6.044677
  Cr      7.559662      7.731297      8.558939
13
Coordinates from ORCA-job pbe E -2674.151391270894
  Au      8.927113      9.180075     10.251674
  Au      5.091502      6.822100      7.538902
  Au      8.018615     10.415969      8.108595
  Au      5.746851     11.352951      6.868888
  Au      5.327791      9.415713      8.804123
  Au      5.529876      7.082348     10.254737
  Au      7.120861      5.126562      9.009050
  Au      9.546235      5.992843      7.877292
  Au      8.274844     10.674215      5.382788
  Au      7.358846      6.197017      6.201614
  Au      9.308435      8.337351      6.452471
  Au      6.360487      8.768804      6.045314
  Cr      7.559899      7.729535      8.559987
