13
E=  -1353.65200678;c=0;m=3
Au      9.975707069569809      4.480045712142390      6.647910239065280
Au     10.866341548113130      7.196676400990230      6.200949383649170
Au      8.486170353686539      8.825616943799719      6.441640196066340
Au     10.258343641395779      8.608475712385159      8.653149564413081
Au      9.076795924115700      6.789709501349740     10.549527819823719
Au     11.178731433495949      5.922580157343650      8.780020473215419
Au      8.902144294988160      4.238423706025290      9.310217132951950
Au      6.522523600365030      5.867192312002710      9.551139299620671
Au      7.413188772912320      8.583899897413190      9.104675856412880
Au      7.130769313578800      4.454920032242700      7.099208720222050
Au      6.210019181342380      7.141230700150610      6.972328327237700
Au      8.311626100028869      6.274206051990760      5.202240799278310
Cr      8.694294586407510      6.531987972163910      7.876006748043460
