11
E=  -1164.50491222;c=0;m=5
Au     10.128178533156751      3.010970495503390      7.753297408978470
Au     11.853409181603530      4.945321602903850      7.254609813860920
Au     13.956327054265611      6.278092565576050      6.530505593560180
Au      9.067887317484599      5.287142528663300      6.560868130097690
Au     11.948093613761049      7.745592050464370      7.513786379070780
Au     10.471839759088390      9.620366225276820      8.615126956016470
Au      7.668891172187500      9.250961604768840      8.472303590385801
Au      8.951965260328921      7.542476192846740     10.370655490096039
Au      7.571411411004000      7.466011566589940      6.330507160234670
Au      9.866060408043319      5.247563313653340      9.387543021166231
Fe      9.475719259076509      7.439327013753190      7.900326966532780
