11
Coordinates from ORCA-job pbe E -2621.729779997055
  Au     10.128179      3.010970      7.753297
  Au     11.853409      4.945322      7.254610
  Au     13.956327      6.278093      6.530506
  Au      9.067887      5.287143      6.560868
  Au     11.948094      7.745592      7.513786
  Au     10.471840      9.620366      8.615127
  Au      7.668891      9.250962      8.472304
  Au      8.951965      7.542476     10.370655
  Au      7.571411      7.466012      6.330507
  Au      9.866060      5.247563      9.387543
  Fe      9.475719      7.439327      7.900327
11
Coordinates from ORCA-job pbe E -2621.730645440974
  Au     10.110748      2.982809      7.759277
  Au     11.862357      4.929091      7.254299
  Au     14.034935      6.255400      6.499796
  Au      9.074272      5.267411      6.541217
  Au     11.980003      7.757006      7.511987
  Au     10.433961      9.667339      8.630655
  Au      7.666458      9.269418      8.479642
  Au      8.941715      7.524443     10.381539
  Au      7.528647      7.472907      6.332269
  Au      9.855371      5.264075      9.396208
  Fe      9.471315      7.443926      7.902641
11
Coordinates from ORCA-job pbe E -2621.731574687423
  Au     10.133353      3.004570      7.744636
  Au     11.859578      4.958106      7.256903
  Au     13.983311      6.246171      6.526310
  Au      9.073295      5.251801      6.535072
  Au     12.001697      7.742869      7.520011
  Au     10.448105      9.677381      8.615170
  Au      7.685461      9.282060      8.481149
  Au      8.932664      7.522948     10.390622
  Au      7.504570      7.457276      6.333614
  Au      9.861718      5.257274      9.382058
  Fe      9.476031      7.433370      7.903985
11
Coordinates from ORCA-job pbe E -2621.732437757492
  Au     10.133441      3.014699      7.732279
  Au     11.840299      4.973753      7.262207
  Au     13.994278      6.260361      6.535019
  Au      9.049256      5.254340      6.532849
  Au     12.003005      7.762061      7.543537
  Au     10.483362      9.662687      8.581978
  Au      7.702117      9.282804      8.479869
  Au      8.916303      7.528592     10.395756
  Au      7.493876      7.428728      6.344855
  Au      9.864957      5.245176      9.372150
  Fe      9.478889      7.420625      7.909031
11
Coordinates from ORCA-job pbe E -2621.732856336459
  Au     10.131290      2.995526      7.718009
  Au     11.837604      5.004815      7.265117
  Au     14.001146      6.265497      6.547991
  Au      9.022019      5.259451      6.514927
  Au     12.024206      7.779145      7.563556
  Au     10.496650      9.666740      8.546105
  Au      7.732226      9.287406      8.472752
  Au      8.905334      7.509925     10.394749
  Au      7.471567      7.402084      6.373866
  Au      9.851469      5.255480      9.378655
  Fe      9.486272      7.407755      7.913805
11
Coordinates from ORCA-job pbe E -2621.733558757134
  Au     10.134754      3.020091      7.700771
  Au     11.810052      5.025579      7.274275
  Au     14.017889      6.241832      6.558746
  Au      9.017937      5.247718      6.499734
  Au     12.060885      7.795119      7.578718
  Au     10.485114      9.692004      8.515388
  Au      7.755378      9.283535      8.467089
  Au      8.892690      7.489154     10.392635
  Au      7.439910      7.385894      6.413218
  Au      9.846320      5.257697      9.371336
  Fe      9.498854      7.395202      7.917620
11
Coordinates from ORCA-job pbe E -2621.734000836342
  Au     10.150323      3.007473      7.680899
  Au     11.797178      5.049634      7.273951
  Au     14.026325      6.229926      6.569149
  Au      9.002737      5.231403      6.492847
  Au     12.096321      7.811495      7.593882
  Au     10.488690      9.711679      8.481064
  Au      7.763346      9.286361      8.463313
  Au      8.865599      7.500648     10.392042
  Au      7.416181      7.390450      6.450996
  Au      9.840901      5.229750      9.368946
  Fe      9.512182      7.385006      7.922443
11
Coordinates from ORCA-job pbe E -2621.734508900914
  Au     10.159871      3.012091      7.666835
  Au     11.775400      5.080379      7.280789
  Au     14.027936      6.217879      6.593390
  Au      8.987013      5.225018      6.490036
  Au     12.124223      7.832106      7.595157
  Au     10.497758      9.722547      8.438015
  Au      7.764377      9.288619      8.472023
  Au      8.856883      7.480956     10.380950
  Au      7.407990      7.384038      6.484339
  Au      9.827734      5.215095      9.366619
  Fe      9.530598      7.375097      7.921378
11
Coordinates from ORCA-job pbe E -2621.735364316107
  Au     10.172019      3.010465      7.651912
  Au     11.746861      5.122468      7.290768
  Au     14.026751      6.204594      6.610853
  Au      8.966615      5.221122      6.500754
  Au     12.160666      7.861437      7.591020
  Au     10.497313      9.734882      8.375952
  Au      7.762650      9.296161      8.501125
  Au      8.836961      7.450681     10.356261
  Au      7.427767      7.380008      6.516920
  Au      9.798745      5.185609      9.375138
  Fe      9.563434      7.366399      7.918827
11
Coordinates from ORCA-job pbe E -2621.736095151333
  Au     10.191542      3.002350      7.645188
  Au     11.723207      5.159908      7.304088
  Au     14.024525      6.195636      6.619628
  Au      8.953449      5.206193      6.521034
  Au     12.185206      7.894163      7.574376
  Au     10.495113      9.736676      8.320310
  Au      7.764227      9.308190      8.537917
  Au      8.809046      7.418029     10.329097
  Au      7.454651      7.399068      6.539406
  Au      9.762508      5.152159      9.384801
  Fe      9.596307      7.361454      7.913684
11
Coordinates from ORCA-job pbe E -2621.736721684571
  Au     10.210009      2.997288      7.633089
  Au     11.699984      5.192996      7.315265
  Au     14.025485      6.180257      6.625524
  Au      8.935691      5.199958      6.539628
  Au     12.214608      7.918877      7.562084
  Au     10.473162      9.750254      8.265197
  Au      7.777859      9.326211      8.567982
  Au      8.771569      7.389154     10.311770
  Au      7.482133      7.405374      6.562902
  Au      9.738451      5.117525      9.390852
  Fe      9.630831      7.355932      7.915237
11
Coordinates from ORCA-job pbe E -2621.737223257836
  Au     10.238632      2.990325      7.624678
  Au     11.682216      5.223073      7.327228
  Au     14.028068      6.167776      6.634501
  Au      8.915648      5.182757      6.563932
  Au     12.231733      7.946621      7.534333
  Au     10.465262      9.755632      8.222206
  Au      7.789833      9.346509      8.590718
  Au      8.729980      7.355600     10.296679
  Au      7.503099      7.430016      6.584522
  Au      9.712320      5.085132      9.394054
  Fe      9.662991      7.350382      7.916681
11
Coordinates from ORCA-job pbe E -2621.737561374568
  Au     10.262690      2.990375      7.609933
  Au     11.663157      5.254116      7.335264
  Au     14.032685      6.153671      6.650912
  Au      8.887861      5.171229      6.585677
  Au     12.252777      7.970528      7.510784
  Au     10.459294      9.767714      8.177219
  Au      7.804158      9.358984      8.607341
  Au      8.686880      7.325624     10.281210
  Au      7.518114      7.441743      6.613829
  Au      9.694370      5.058901      9.394597
  Fe      9.697798      7.340939      7.922764
11
Coordinates from ORCA-job pbe E -2621.737741600529
  Au     10.286601      2.991442      7.597714
  Au     11.649142      5.278802      7.335473
  Au     14.039724      6.137974      6.671126
  Au      8.859511      5.161063      6.612200
  Au     12.261153      7.991652      7.472931
  Au     10.459412      9.778151      8.146373
  Au      7.810074      9.370943      8.623640
  Au      8.640956      7.296219     10.264943
  Au      7.537981      7.457512      6.634655
  Au      9.683226      5.036030      9.399207
  Fe      9.732004      7.334037      7.931268
11
Coordinates from ORCA-job pbe E -2621.737801098737
  Au     10.283312      2.993506      7.593041
  Au     11.647913      5.280180      7.330503
  Au     14.044551      6.135133      6.684430
  Au      8.855676      5.162350      6.610389
  Au     12.258420      7.991995      7.460614
  Au     10.457825      9.782279      8.145839
  Au      7.812577      9.371402      8.622336
  Au      8.636145      7.293665     10.263871
  Au      7.536026      7.454360      6.641039
  Au      9.690046      5.037222      9.401820
  Fe      9.737293      7.331733      7.935649
11
Coordinates from ORCA-job pbe E -2621.737868128279
  Au     10.275025      2.996308      7.590574
  Au     11.651086      5.274009      7.319220
  Au     14.049540      6.138668      6.692493
  Au      8.858478      5.164358      6.610398
  Au     12.243283      7.986109      7.440256
  Au     10.464536      9.782800      8.158916
  Au      7.809033      9.370577      8.620717
  Au      8.625468      7.297792     10.262559
  Au      7.540563      7.451743      6.636888
  Au      9.701484      5.041553      9.411253
  Fe      9.741287      7.329908      7.946256
11
Coordinates from ORCA-job pbe E -2621.737898265307
  Au     10.271675      2.996981      7.590966
  Au     11.651068      5.272421      7.320315
  Au     14.048666      6.140669      6.693962
  Au      8.862136      5.165421      6.606580
  Au     12.242323      7.987128      7.435321
  Au     10.462500      9.782657      8.156483
  Au      7.811402      9.371558      8.621168
  Au      8.622614      7.294231     10.258859
  Au      7.541801      7.451810      6.642181
  Au      9.700539      5.043830      9.412610
  Fe      9.745059      7.327119      7.951085
11
Coordinates from ORCA-job pbe E -2621.737947586485
  Au     10.270860      2.995690      7.595403
  Au     11.654849      5.265406      7.321349
  Au     14.045379      6.144860      6.683576
  Au      8.870114      5.168925      6.602900
  Au     12.240421      7.986741      7.434112
  Au     10.459265      9.781055      8.153057
  Au      7.811341      9.377290      8.622730
  Au      8.612257      7.291969     10.255119
  Au      7.549453      7.454920      6.645161
  Au      9.696592      5.043480      9.414624
  Fe      9.749253      7.323489      7.961501
11
Coordinates from ORCA-job pbe E -2621.738023527073
  Au     10.270886      2.991757      7.607776
  Au     11.662448      5.254898      7.325704
  Au     14.040826      6.150484      6.666056
  Au      8.883216      5.175890      6.598248
  Au     12.240542      7.988914      7.426857
  Au     10.451038      9.778623      8.134659
  Au      7.805895      9.389321      8.635440
  Au      8.587305      7.282070     10.245806
  Au      7.570035      7.468832      6.654253
  Au      9.686168      5.037021      9.413866
  Fe      9.761425      7.316015      7.980866
11
Coordinates from ORCA-job pbe E -2621.738067662198
  Au     10.273915      2.990044      7.613069
  Au     11.668505      5.249716      7.327897
  Au     14.040822      6.152022      6.657820
  Au      8.888582      5.181239      6.596461
  Au     12.241383      7.990072      7.420717
  Au     10.442538      9.776299      8.113981
  Au      7.801864      9.401218      8.646557
  Au      8.567396      7.274001     10.242778
  Au      7.585828      7.479777      6.663311
  Au      9.678298      5.029367      9.412925
  Fe      9.770652      7.310070      7.994015
11
Coordinates from ORCA-job pbe E -2621.738107380736
  Au     10.275254      2.990127      7.613406
  Au     11.673267      5.247884      7.329689
  Au     14.046706      6.149790      6.664703
  Au      8.890705      5.186601      6.592375
  Au     12.243448      7.991983      7.408273
  Au     10.431874      9.774097      8.082718
  Au      7.796105      9.409861      8.665056
  Au      8.551175      7.266166     10.240635
  Au      7.598393      7.491692      6.678728
  Au      9.672279      5.022259      9.410293
  Fe      9.780576      7.303364      8.003655
11
Coordinates from ORCA-job pbe E -2621.738141737299
  Au     10.275075      2.992415      7.605622
  Au     11.676224      5.248302      7.328785
  Au     14.057138      6.146603      6.684462
  Au      8.890638      5.191831      6.586451
  Au     12.242995      7.992575      7.393356
  Au     10.420116      9.770191      8.049092
  Au      7.793441      9.419180      8.681350
  Au      8.541824      7.260721     10.243220
  Au      7.604493      7.499112      6.697416
  Au      9.669709      5.016828      9.409420
  Fe      9.788129      7.296067      8.010356
11
Coordinates from ORCA-job pbe E -2621.738168544930
  Au     10.271727      2.996258      7.592906
  Au     11.676068      5.251035      7.326568
  Au     14.069709      6.141297      6.716991
  Au      8.889775      5.196786      6.577964
  Au     12.242254      7.993207      7.377625
  Au     10.408598      9.766320      8.015858
  Au      7.791793      9.423385      8.698069
  Au      8.544439      7.259222     10.246502
  Au      7.602063      7.502244      6.717259
  Au      9.671035      5.014325      9.408576
  Fe      9.792322      7.289745      8.011211
11
Coordinates from ORCA-job pbe E -2621.738182186051
  Au     10.268598      2.998788      7.582469
  Au     11.674193      5.253478      7.324536
  Au     14.076823      6.138778      6.740091
  Au      8.889256      5.199554      6.573083
  Au     12.240437      7.992896      7.370292
  Au     10.402644      9.763573      8.000644
  Au      7.792738      9.424948      8.703793
  Au      8.554322      7.260680     10.249681
  Au      7.595363      7.500862      6.726870
  Au      9.673746      5.013448      9.409597
  Fe      9.791663      7.286819      8.008475
11
Coordinates from ORCA-job pbe E -2621.738188680231
  Au     10.266638      2.999549      7.577843
  Au     11.672723      5.254396      7.324578
  Au     14.078956      6.137634      6.750649
  Au      8.889451      5.201300      6.571351
  Au     12.239776      7.992909      7.369361
  Au     10.400227      9.762693      7.995918
  Au      7.793026      9.423909      8.705793
  Au      8.564104      7.262476     10.249915
  Au      7.589767      7.499790      6.728766
  Au      9.675446      5.012933      9.410306
  Fe      9.789670      7.286236      8.005051
11
Coordinates from ORCA-job pbe E -2621.738192143190
  Au     10.265749      2.999327      7.576402
  Au     11.672609      5.254034      7.325718
  Au     14.079029      6.137840      6.753013
  Au      8.889757      5.202883      6.571996
  Au     12.239066      7.992858      7.370420
  Au     10.398957      9.762376      7.995128
  Au      7.792839      9.423599      8.705523
  Au      8.569799      7.263002     10.249242
  Au      7.587283      7.500487      6.727477
  Au      9.676172      5.011466      9.411140
  Fe      9.788522      7.285954      8.003472
11
Coordinates from ORCA-job pbe E -2621.738194294745
  Au     10.265291      2.999047      7.575866
  Au     11.673371      5.253279      7.327422
  Au     14.079045      6.138025      6.753682
  Au      8.889581      5.204682      6.573330
  Au     12.238687      7.993085      7.370510
  Au     10.397161      9.762243      7.992618
  Au      7.791999      9.423812      8.706669
  Au      8.571840      7.262377     10.247998
  Au      7.587273      7.502871      6.726496
  Au      9.676514      5.009330      9.411591
  Fe      9.789020      7.285074      8.003349
11
Coordinates from ORCA-job pbe E -2621.738195584652
  Au     10.264915      2.998811      7.575446
  Au     11.674712      5.252217      7.329202
  Au     14.079090      6.138545      6.753227
  Au      8.889142      5.206150      6.574767
  Au     12.238207      7.993292      7.369782
  Au     10.395477      9.761981      7.989984
  Au      7.791071      9.424504      8.707771
  Au      8.571254      7.261358     10.247262
  Au      7.588823      7.505680      6.725864
  Au      9.676768      5.007466      9.412022
  Fe      9.790324      7.283820      8.004203
11
Coordinates from ORCA-job pbe E -2621.738196266401
  Au     10.264446      2.998811      7.574923
  Au     11.675790      5.251400      7.330690
  Au     14.079141      6.138963      6.752880
  Au      8.888626      5.206832      6.575453
  Au     12.238031      7.993540      7.368921
  Au     10.394333      9.761686      7.988029
  Au      7.790452      9.424888      8.708856
  Au      8.570049      7.260761     10.247022
  Au      7.590369      7.507433      6.725724
  Au      9.677059      5.006767      9.412208
  Fe      9.791487      7.282745      8.004824
11
Coordinates from ORCA-job pbe E -2621.738196821692
  Au     10.263740      2.998907      7.574198
  Au     11.676813      5.250564      7.332312
  Au     14.079058      6.139491      6.752351
  Au      8.888164      5.207052      6.575684
  Au     12.237871      7.993798      7.368219
  Au     10.393517      9.761238      7.987106
  Au      7.789950      9.425105      8.709472
  Au      8.569127      7.260627     10.247082
  Au      7.591721      7.508525      6.725603
  Au      9.677454      5.006794      9.412453
  Fe      9.792370      7.281726      8.005051
