15
E=  -1570.59694402;c=0;m=5
Au      5.429804212635170      7.518526582022140     10.975379908280830
Au      9.195822679177660      7.601697754719340      6.020145948836370
Au      7.735422604252680      5.251778087073630      7.278598990935570
Au      5.443525757287710      7.179540268317620      8.210261416146750
Au      9.520614919462339      9.526528519130300      8.175334409038220
Au      9.619758744118521      6.758431293432570      8.711457973531751
Au      7.402259634351950      5.824916438136930     10.017845698146729
Au      7.445666052916180      8.726244847869889      9.666239668357210
Au      5.631196319013620      9.202696344425160      4.624193594701400
Au      6.950061252946330      9.511233630767130      6.952960327196910
Au      4.127096909783120      6.684756094661560      5.931923521233120
Au      7.981607852910700      7.300003476538380      3.646565117130430
Au      5.232652177743340      6.709281263634950      3.337332215544840
Au      6.422095581908420      4.728724489619680      4.991394850971430
Cr      6.603860601492240      7.140698389650740      5.777001599948470
