11
E=  -1145.40952113;c=0;m=6
Au      8.284939345778930      7.789323247463390     11.572479282676410
Au      7.832993471411720      5.381207618401480     10.518708719750149
Au      9.445216109306241      7.445462934165390      9.048916867191110
Au      7.351985986540490      3.496602826011100      8.753391949359809
Au      6.457124621897880      7.829282045063740      9.453351582604229
Au      6.121950262050690      7.784489281075100      6.820158751256240
Au      7.117208578781100      4.367896824122070      6.193059383976860
Au      9.057868841985160      7.407387780532350      6.422799713225150
Au      7.155046414475390      6.433003202486200      4.512633059824340
Au      7.530052820073710      9.098715271991461      4.753380634563440
Mn      7.574227527698440      5.986784958687530      8.032576825572310
