13
E=  -1382.02309784;c=0;m=5
Au      6.113854166819010      8.478039797661189      3.741977164956820
Au      8.318875401102080      6.826548359188460      4.152819150929130
Au      7.716319950915330      5.018802858528300      6.197276135938590
Au      4.972821986624900      5.621386627275640      6.563663823497030
Au      4.630036694543840     10.630931900047109      4.665242637986160
Au      4.164764194875190      8.134276886996780      5.755306356355250
Au      8.385811512806860      9.397086623328400      5.223332247901530
Au      6.916244784435050     11.555325163341291      6.156063690691200
Au      5.146912199989860      7.822373426129380      8.399690358519379
Au      7.819409878957500      6.772581901813350      8.419553704402571
Au      7.412871117985280      9.447697051940739      7.873182013894640
Au      4.658467491918100     10.459649727554790      7.513167610494700
Fe      6.781093729026950      7.421895616194540      6.141494914432990
