13
Coordinates from ORCA-job pbe E -2893.389288651407
  Au      6.113854      8.478040      3.741977
  Au      8.318875      6.826548      4.152819
  Au      7.716320      5.018803      6.197276
  Au      4.972822      5.621387      6.563664
  Au      4.630037     10.630932      4.665243
  Au      4.164764      8.134277      5.755306
  Au      8.385812      9.397087      5.223332
  Au      6.916245     11.555325      6.156064
  Au      5.146912      7.822373      8.399690
  Au      7.819410      6.772582      8.419554
  Au      7.412871      9.447697      7.873182
  Au      4.658467     10.459650      7.513168
  Fe      6.781094      7.421896      6.141495
13
Coordinates from ORCA-job pbe E -2893.390988273686
  Au      6.117271      8.512782      3.755145
  Au      8.319384      6.823633      4.153831
  Au      7.709909      5.029094      6.199604
  Au      4.956076      5.641851      6.575314
  Au      4.653899     10.600469      4.683464
  Au      4.189546      8.128467      5.761745
  Au      8.356106      9.418993      5.215051
  Au      6.910650     11.513802      6.155072
  Au      5.162181      7.838011      8.366667
  Au      7.804082      6.793206      8.432184
  Au      7.403967      9.428785      7.858103
  Au      4.680614     10.418447      7.504545
  Fe      6.773798      7.439056      6.142046
13
Coordinates from ORCA-job pbe E -2893.391572720391
  Au      6.136790      8.529444      3.744505
  Au      8.321739      6.812037      4.157518
  Au      7.705158      5.029220      6.205692
  Au      4.953530      5.626772      6.589545
  Au      4.654274     10.615714      4.685613
  Au      4.190808      8.125918      5.756337
  Au      8.350745      9.426191      5.188574
  Au      6.901251     11.525930      6.150892
  Au      5.164129      7.835336      8.365579
  Au      7.801136      6.777794      8.445815
  Au      7.408921      9.428327      7.855770
  Au      4.677774     10.409549      7.514290
  Fe      6.771228      7.444364      6.142642
13
Coordinates from ORCA-job pbe E -2893.391956239129
  Au      6.148257      8.559169      3.729501
  Au      8.316841      6.811130      4.166465
  Au      7.696693      5.038094      6.211790
  Au      4.950295      5.608282      6.615293
  Au      4.659304     10.617261      4.677726
  Au      4.195622      8.121686      5.743239
  Au      8.343111      9.449634      5.162255
  Au      6.906744     11.528424      6.143446
  Au      5.167025      7.807810      8.378299
  Au      7.791026      6.756818      8.465902
  Au      7.419330      9.427355      7.847421
  Au      4.680403     10.401875      7.515335
  Fe      6.762832      7.459058      6.146100
13
Coordinates from ORCA-job pbe E -2893.392164859785
  Au      6.162962      8.568050      3.705989
  Au      8.312904      6.807514      4.175889
  Au      7.683206      5.045733      6.226475
  Au      4.944509      5.611281      6.632925
  Au      4.649525     10.620863      4.690299
  Au      4.209165      8.114525      5.730638
  Au      8.352868      9.457247      5.136127
  Au      6.897562     11.533770      6.156891
  Au      5.173070      7.802507      8.372358
  Au      7.777540      6.756364      8.476693
  Au      7.429074      9.419251      7.833242
  Au      4.686993     10.375233      7.521514
  Fe      6.758105      7.474258      6.143728
13
Coordinates from ORCA-job pbe E -2893.392294137516
  Au      6.155889      8.566582      3.702927
  Au      8.307516      6.817931      4.178569
  Au      7.681825      5.050656      6.225561
  Au      4.945568      5.611117      6.631741
  Au      4.652932     10.614096      4.687857
  Au      4.210643      8.108205      5.730568
  Au      8.357232      9.460886      5.140970
  Au      6.902564     11.527923      6.155462
  Au      5.166447      7.804757      8.380724
  Au      7.778772      6.756233      8.474378
  Au      7.431694      9.413382      7.834124
  Au      4.691228     10.374008      7.515906
  Fe      6.755173      7.480821      6.143983
13
Coordinates from ORCA-job pbe E -2893.392366325725
  Au      6.152357      8.565518      3.700366
  Au      8.303352      6.825482      4.181912
  Au      7.681121      5.055791      6.223011
  Au      4.946852      5.612930      6.634227
  Au      4.656504     10.608447      4.689599
  Au      4.210263      8.099726      5.727196
  Au      8.359480      9.463086      5.142831
  Au      6.903651     11.522126      6.155946
  Au      5.161384      7.804117      8.388475
  Au      7.776314      6.756403      8.472346
  Au      7.438265      9.407905      7.835758
  Au      4.697049     10.373871      7.507387
  Fe      6.750891      7.491192      6.143717
13
Coordinates from ORCA-job pbe E -2893.392411839622
  Au      6.149753      8.564222      3.697518
  Au      8.303121      6.826524      4.183230
  Au      7.680016      5.059825      6.221433
  Au      4.949916      5.614212      6.637227
  Au      4.655408     10.603016      4.688665
  Au      4.205717      8.093247      5.723251
  Au      8.361806      9.464942      5.143852
  Au      6.907956     11.519870      6.159064
  Au      5.157957      7.808442      8.390779
  Au      7.773161      6.755116      8.469493
  Au      7.445351      9.406425      7.839789
  Au      4.700082     10.369726      7.505742
  Fe      6.747239      7.501030      6.142727
13
Coordinates from ORCA-job pbe E -2893.392469483581
  Au      6.149496      8.559620      3.697838
  Au      8.304585      6.827388      4.183114
  Au      7.679570      5.063748      6.217859
  Au      4.956198      5.615493      6.642085
  Au      4.656483     10.598375      4.690988
  Au      4.195019      8.086559      5.718821
  Au      8.362040      9.462494      5.145412
  Au      6.908555     11.517249      6.162022
  Au      5.156606      7.812395      8.390280
  Au      7.768078      6.751375      8.464232
  Au      7.454411      9.408180      7.848684
  Au      4.704546     10.368554      7.500092
  Fe      6.741898      7.515167      6.141343
13
Coordinates from ORCA-job pbe E -2893.392488938496
  Au      6.150071      8.557171      3.699059
  Au      8.307442      6.824817      4.182120
  Au      7.679986      5.064989      6.215097
  Au      4.959483      5.616020      6.645217
  Au      4.657139     10.598556      4.689270
  Au      4.186955      8.082601      5.718630
  Au      8.360689      9.461000      5.146104
  Au      6.910044     11.518999      6.161537
  Au      5.159234      7.812968      8.386206
  Au      7.764665      6.749233      8.461986
  Au      7.458237      9.409399      7.856118
  Au      4.704728     10.368418      7.500498
  Fe      6.738811      7.522424      6.140926
13
Coordinates from ORCA-job pbe E -2893.392492675228
  Au      6.151093      8.555352      3.699827
  Au      8.308471      6.824033      4.181249
  Au      7.679784      5.064915      6.214974
  Au      4.959983      5.614693      6.644216
  Au      4.657856     10.598282      4.690705
  Au      4.185450      8.085912      5.719523
  Au      8.360784      9.459004      5.146116
  Au      6.908518     11.518613      6.161789
  Au      5.160130      7.813719      8.384687
  Au      7.765895      6.748051      8.461615
  Au      7.456506      9.412484      7.856571
  Au      4.704285     10.368741      7.500742
  Fe      6.738728      7.522797      6.140755
13
Coordinates from ORCA-job pbe E -2893.392494327139
  Au      6.150954      8.555086      3.699781
  Au      8.308475      6.823990      4.181247
  Au      7.679844      5.064980      6.214995
  Au      4.959129      5.614793      6.643313
  Au      4.658505     10.598754      4.690319
  Au      4.186232      8.086282      5.720622
  Au      8.360832      9.459042      5.146245
  Au      6.908534     11.518748      6.161064
  Au      5.160505      7.812519      8.384781
  Au      7.766653      6.748886      8.461985
  Au      7.455332      9.412028      7.856110
  Au      4.703644     10.369304      7.501397
  Fe      6.738845      7.522184      6.140912
