11
Coordinates from ORCA-job pbe E -2508.992660175643
  Au      5.793873      8.155774      9.414376
  Au      5.468818      8.064062      6.199886
  Au      4.532488     10.040902      7.807502
  Au      7.291028     10.312670      7.956137
  Au      8.095816      6.877955      9.841064
  Au      9.561740      6.182482      7.318225
  Au      9.323118      4.657363      5.197358
  Au     10.871905      6.874639      9.521285
  Au      9.595583      9.019894      8.294500
  Au      7.274419      6.318699      5.529699
  Mn      7.494932      7.822255      7.504810
11
Coordinates from ORCA-job pbe E -2508.995115297125
  Au      5.790668      8.158592      9.427530
  Au      5.401177      8.092244      6.208669
  Au      4.519627     10.058086      7.865683
  Au      7.293661     10.342948      7.922214
  Au      8.078339      6.890627      9.856728
  Au      9.573124      6.161098      7.324064
  Au      9.406069      4.625599      5.171415
  Au     10.854769      6.844666      9.544400
  Au      9.617471      9.036664      8.275563
  Au      7.280990      6.282036      5.492915
  Mn      7.487823      7.834136      7.495661
11
Coordinates from ORCA-job pbe E -2508.995785747963
  Au      5.787559      8.168293      9.436275
  Au      5.380081      8.057684      6.207282
  Au      4.535993     10.050919      7.869805
  Au      7.308476     10.353585      7.893054
  Au      8.083392      6.889745      9.873188
  Au      9.557339      6.140944      7.330739
  Au      9.420952      4.708550      5.186148
  Au     10.826413      6.814236      9.540487
  Au      9.637152      9.040469      8.256999
  Au      7.276052      6.266010      5.492698
  Mn      7.490309      7.836260      7.498167
11
Coordinates from ORCA-job pbe E -2508.996914017521
  Au      5.790094      8.179566      9.452475
  Au      5.369597      7.994575      6.211237
  Au      4.570144     10.032443      7.851340
  Au      7.328817     10.366390      7.872724
  Au      8.078508      6.883097      9.899663
  Au      9.544438      6.129585      7.357369
  Au      9.426103      4.751444      5.129239
  Au     10.795530      6.813072      9.567857
  Au      9.659554      9.055242      8.240489
  Au      7.242275      6.275994      5.490699
  Mn      7.498659      7.845288      7.511751
11
Coordinates from ORCA-job pbe E -2508.997463266357
  Au      5.798806      8.167939      9.466392
  Au      5.344581      7.954959      6.236125
  Au      4.605212     10.026796      7.819020
  Au      7.359037     10.375060      7.849380
  Au      8.049398      6.872635      9.915745
  Au      9.521151      6.108579      7.369178
  Au      9.428591      4.803541      5.092748
  Au     10.798079      6.831581      9.588387
  Au      9.668575      9.060557      8.235385
  Au      7.227446      6.273155      5.488566
  Mn      7.502843      7.851893      7.523916
11
Coordinates from ORCA-job pbe E -2508.998594353587
  Au      5.791263      8.154424      9.469895
  Au      5.317366      7.917597      6.269217
  Au      4.638386     10.026381      7.802703
  Au      7.391690     10.392271      7.822812
  Au      8.035150      6.849362      9.914911
  Au      9.493472      6.090845      7.394540
  Au      9.435245      4.825221      5.078810
  Au     10.784553      6.856231      9.560319
  Au      9.669305      9.068358      8.254894
  Au      7.236017      6.277968      5.479029
  Mn      7.511274      7.868037      7.537713
11
Coordinates from ORCA-job pbe E -2508.999679438414
  Au      5.772806      8.138655      9.462446
  Au      5.290484      7.889420      6.310131
  Au      4.660706     10.030411      7.803334
  Au      7.420505     10.421912      7.790289
  Au      8.031971      6.809406      9.892215
  Au      9.466896      6.085418      7.413349
  Au      9.441636      4.811762      5.082438
  Au     10.767064      6.878239      9.518903
  Au      9.665219      9.082367      8.290650
  Au      7.261822      6.283182      5.469675
  Mn      7.524610      7.895923      7.551413
11
Coordinates from ORCA-job pbe E -2509.000528869974
  Au      5.764454      8.123502      9.455476
  Au      5.276313      7.847534      6.338584
  Au      4.688481     10.041174      7.818711
  Au      7.441086     10.448048      7.752063
  Au      8.004801      6.791316      9.874023
  Au      9.439766      6.063479      7.426171
  Au      9.468402      4.826790      5.081757
  Au     10.759459      6.881640      9.488082
  Au      9.660921      9.095952      8.310949
  Au      7.264373      6.282233      5.478489
  Mn      7.535662      7.925027      7.560538
11
Coordinates from ORCA-job pbe E -2509.001931346854
  Au      5.743573      8.119524      9.429693
  Au      5.283832      7.841562      6.366390
  Au      4.677726     10.054373      7.850856
  Au      7.423625     10.489029      7.725410
  Au      8.010994      6.772366      9.822168
  Au      9.420440      6.062234      7.400741
  Au      9.497178      4.788754      5.098697
  Au     10.759404      6.845972      9.465576
  Au      9.648003      9.111866      8.341880
  Au      7.286011      6.265659      5.519594
  Mn      7.552933      7.975356      7.563838
11
Coordinates from ORCA-job pbe E -2509.003822543438
  Au      5.727831      8.087591      9.416468
  Au      5.300023      7.807213      6.397612
  Au      4.697762     10.047421      7.818688
  Au      7.428107     10.521581      7.724841
  Au      8.004558      6.749236      9.803651
  Au      9.380958      6.039177      7.390741
  Au      9.475728      4.785896      5.082077
  Au     10.770987      6.864607      9.470697
  Au      9.659737      9.135236      8.359871
  Au      7.286326      6.270043      5.546848
  Mn      7.571702      8.018693      7.573349
11
Coordinates from ORCA-job pbe E -2509.005801186213
  Au      5.691949      8.044216      9.389109
  Au      5.318317      7.779944      6.425922
  Au      4.713039     10.065588      7.817395
  Au      7.431094     10.570961      7.732958
  Au      8.000620      6.705636      9.774010
  Au      9.350305      6.019651      7.382991
  Au      9.471977      4.757412      5.074642
  Au     10.768776      6.885133      9.463751
  Au      9.684110      9.180483      8.369792
  Au      7.286638      6.253164      5.578780
  Mn      7.586893      8.064507      7.575492
11
Coordinates from ORCA-job pbe E -2509.007922703127
  Au      5.649764      7.998857      9.358988
  Au      5.325453      7.771981      6.441961
  Au      4.753713     10.072077      7.834488
  Au      7.444687     10.611657      7.753439
  Au      7.990362      6.651787      9.756079
  Au      9.330763      5.993606      7.389057
  Au      9.470284      4.733713      5.073526
  Au     10.754418      6.939454      9.464939
  Au      9.722352      9.235729      8.358116
  Au      7.271085      6.230806      5.584827
  Mn      7.590837      8.087027      7.569423
11
Coordinates from ORCA-job pbe E -2509.009491204920
  Au      5.620682      7.944912      9.344311
  Au      5.320278      7.760673      6.449656
  Au      4.794266     10.090833      7.861104
  Au      7.479827     10.648287      7.758504
  Au      7.978270      6.597137      9.734757
  Au      9.312369      5.967434      7.406585
  Au      9.476079      4.731012      5.080059
  Au     10.719894      6.998567      9.459480
  Au      9.750411      9.288607      8.341961
  Au      7.257203      6.204458      5.583894
  Mn      7.594441      8.094775      7.564530
11
Coordinates from ORCA-job pbe E -2509.010502946702
  Au      5.602381      7.909640      9.336158
  Au      5.310746      7.750358      6.450392
  Au      4.860233     10.080868      7.892379
  Au      7.509409     10.672669      7.745931
  Au      7.947936      6.563414      9.733962
  Au      9.296039      5.935373      7.429040
  Au      9.488219      4.760830      5.078913
  Au     10.682715      7.043331      9.450775
  Au      9.770989      9.335306      8.321896
  Au      7.237868      6.182263      5.584306
  Mn      7.597184      8.092640      7.561090
11
Coordinates from ORCA-job pbe E -2509.011071943616
  Au      5.595559      7.868599      9.345666
  Au      5.304696      7.742760      6.443567
  Au      4.898861     10.077217      7.918562
  Au      7.542047     10.699896      7.722148
  Au      7.919954      6.542251      9.741472
  Au      9.277172      5.897722      7.447899
  Au      9.504811      4.800679      5.069455
  Au     10.634400      7.078720      9.443421
  Au      9.796218      9.368771      8.299090
  Au      7.224531      6.161920      5.593717
  Mn      7.605470      8.088160      7.559846
11
Coordinates from ORCA-job pbe E -2509.011176392137
  Au      5.583340      7.838026      9.337908
  Au      5.300899      7.709564      6.471917
  Au      4.955633     10.063663      7.922987
  Au      7.560400     10.722678      7.693463
  Au      7.899464      6.522779      9.731789
  Au      9.242750      5.858272      7.471408
  Au      9.508983      4.831300      5.063055
  Au     10.603585      7.101763      9.424254
  Au      9.799411      9.397448      8.294205
  Au      7.227768      6.173999      5.601802
  Mn      7.621485      8.107205      7.572055
11
Coordinates from ORCA-job pbe E -2509.011440880386
  Au      5.565539      7.808430      9.355392
  Au      5.302160      7.742687      6.429253
  Au      4.985964     10.054451      7.975338
  Au      7.551452     10.740101      7.689904
  Au      7.886542      6.507793      9.756362
  Au      9.250837      5.841307      7.469827
  Au      9.506569      4.792441      5.074916
  Au     10.576161      7.126796      9.420268
  Au      9.810024      9.437300      8.262784
  Au      7.244546      6.184463      5.582694
  Mn      7.623926      8.090926      7.568105
11
Coordinates from ORCA-job pbe E -2509.011633894659
  Au      5.568468      7.822356      9.372288
  Au      5.312587      7.756593      6.423502
  Au      4.939301     10.038771      7.961828
  Au      7.556625     10.732574      7.677332
  Au      7.887784      6.525935      9.777149
  Au      9.249666      5.820843      7.476754
  Au      9.509588      4.810103      5.059478
  Au     10.585837      7.114083      9.418411
  Au      9.814218      9.415863      8.255727
  Au      7.249830      6.202147      5.585967
  Mn      7.629816      8.087428      7.576409
11
Coordinates from ORCA-job pbe E -2509.011844117769
  Au      5.559055      7.786201      9.365253
  Au      5.331654      7.781260      6.407158
  Au      4.936990     10.031880      7.987774
  Au      7.543306     10.749740      7.687066
  Au      7.901247      6.501265      9.755135
  Au      9.243193      5.824074      7.473336
  Au      9.475397      4.725823      5.094440
  Au     10.578260      7.151331      9.400723
  Au      9.814007      9.435919      8.261449
  Au      7.278980      6.240892      5.568817
  Mn      7.641630      8.098311      7.583692
11
Coordinates from ORCA-job pbe E -2509.012103453054
  Au      5.549622      7.774146      9.369669
  Au      5.345835      7.786749      6.419791
  Au      4.948588     10.045203      7.976286
  Au      7.524999     10.736957      7.668121
  Au      7.907954      6.508180      9.770087
  Au      9.228783      5.786299      7.489613
  Au      9.478897      4.749634      5.078867
  Au     10.571158      7.142059      9.390873
  Au      9.798969      9.438142      8.238243
  Au      7.299129      6.264154      5.578647
  Mn      7.649786      8.095171      7.604646
11
Coordinates from ORCA-job pbe E -2509.012448498228
  Au      5.541904      7.743261      9.366335
  Au      5.375422      7.820856      6.392206
  Au      4.954908     10.015120      8.027318
  Au      7.515797     10.745845      7.651330
  Au      7.894602      6.499051      9.779125
  Au      9.214204      5.752725      7.508289
  Au      9.459279      4.719355      5.096028
  Au     10.551443      7.163759      9.376400
  Au      9.806103      9.473250      8.206239
  Au      7.325372      6.299401      5.565561
  Mn      7.664683      8.094073      7.616010
11
Coordinates from ORCA-job pbe E -2509.012983982464
  Au      5.532970      7.715709      9.360822
  Au      5.419529      7.889771      6.360232
  Au      4.938680     10.000299      8.076279
  Au      7.495370     10.733058      7.638011
  Au      7.884538      6.494106      9.799130
  Au      9.212274      5.713173      7.523616
  Au      9.449414      4.693144      5.109030
  Au     10.535017      7.193676      9.354353
  Au      9.813900      9.489580      8.165541
  Au      7.347697      6.326164      5.562321
  Mn      7.674329      8.078015      7.635509
11
Coordinates from ORCA-job pbe E -2509.013874197688
  Au      5.530322      7.691288      9.339077
  Au      5.473951      7.974627      6.342270
  Au      4.896706     10.005647      8.121980
  Au      7.469862     10.707629      7.629762
  Au      7.879089      6.476987      9.809134
  Au      9.220115      5.683507      7.534792
  Au      9.442432      4.660852      5.128005
  Au     10.522099      7.219312      9.332559
  Au      9.824174      9.509067      8.123692
  Au      7.362721      6.337605      5.562560
  Mn      7.682247      8.060175      7.661010
11
Coordinates from ORCA-job pbe E -2509.015030724087
  Au      5.537679      7.677415      9.303258
  Au      5.529383      8.050370      6.347330
  Au      4.848293     10.029861      8.148973
  Au      7.443014     10.669193      7.627357
  Au      7.876420      6.441737      9.813592
  Au      9.230967      5.661302      7.545674
  Au      9.439546      4.641456      5.143626
  Au     10.502537      7.248214      9.311944
  Au      9.840484      9.530774      8.085595
  Au      7.361403      6.333770      5.564436
  Mn      7.693993      8.042604      7.693057
11
Coordinates from ORCA-job pbe E -2509.016253279171
  Au      5.551384      7.666595      9.269491
  Au      5.580729      8.112831      6.356869
  Au      4.807497     10.051084      8.169626
  Au      7.420197     10.631597      7.625431
  Au      7.872833      6.394253      9.817551
  Au      9.236068      5.641465      7.558627
  Au      9.430218      4.622818      5.157218
  Au     10.470728      7.280580      9.292925
  Au      9.856511      9.563216      8.047029
  Au      7.363163      6.334371      5.563516
  Mn      7.714392      8.027886      7.726560
11
Coordinates from ORCA-job pbe E -2509.017777181765
  Au      5.573328      7.664275      9.243132
  Au      5.623724      8.157619      6.366129
  Au      4.776102     10.072192      8.175557
  Au      7.400538     10.593926      7.630391
  Au      7.870775      6.332271      9.821642
  Au      9.236457      5.627084      7.570457
  Au      9.414651      4.606344      5.166380
  Au     10.426216      7.317355      9.274856
  Au      9.871563      9.605415      8.013170
  Au      7.364665      6.336312      5.563710
  Mn      7.745701      8.013902      7.759418
11
Coordinates from ORCA-job pbe E -2509.019762685185
  Au      5.601831      7.671974      9.229367
  Au      5.663253      8.189509      6.361385
  Au      4.754576     10.083722      8.171007
  Au      7.379973     10.558880      7.647234
  Au      7.871096      6.266958      9.827294
  Au      9.228386      5.615033      7.579180
  Au      9.389658      4.586867      5.169589
  Au     10.373945      7.355269      9.256892
  Au      9.879813      9.655043      7.984589
  Au      7.372064      6.343094      5.572310
  Mn      7.789123      8.000345      7.785995
11
Coordinates from ORCA-job pbe E -2509.022002986798
  Au      5.631905      7.681455      9.225336
  Au      5.706613      8.221560      6.341801
  Au      4.740333     10.076621      8.167670
  Au      7.356893     10.530140      7.673965
  Au      7.865034      6.218593      9.839639
  Au      9.213062      5.592701      7.585601
  Au      9.361933      4.564394      5.169314
  Au     10.321714      7.391713      9.234560
  Au      9.880383      9.703065      7.954193
  Au      7.387978      6.360832      5.590136
  Mn      7.837871      7.985623      7.802629
11
Coordinates from ORCA-job pbe E -2509.024112555059
  Au      5.663869      7.688465      9.219992
  Au      5.750712      8.263138      6.328556
  Au      4.721714     10.059656      8.175052
  Au      7.334314     10.507731      7.700679
  Au      7.846471      6.185483      9.852082
  Au      9.198956      5.558331      7.593564
  Au      9.340541      4.538085      5.171954
  Au     10.270832      7.426895      9.208074
  Au      9.881242      9.747355      7.919300
  Au      7.410325      6.381751      5.603441
  Mn      7.884743      7.969806      7.812149
11
Coordinates from ORCA-job pbe E -2509.025858983655
  Au      5.695443      7.704285      9.220504
  Au      5.789327      8.296669      6.323783
  Au      4.694093     10.037551      8.183503
  Au      7.313442     10.491692      7.726400
  Au      7.815496      6.168183      9.867436
  Au      9.187996      5.509708      7.604089
  Au      9.325161      4.517165      5.172761
  Au     10.233662      7.452796      9.179956
  Au      9.880640      9.784372      7.884893
  Au      7.438629      6.410579      5.607623
  Mn      7.929832      7.953696      7.813895
11
Coordinates from ORCA-job pbe E -2509.026781172549
  Au      5.721157      7.725913      9.214108
  Au      5.837397      8.349658      6.334076
  Au      4.649375     10.024411      8.193566
  Au      7.288500     10.463837      7.742266
  Au      7.796045      6.143774      9.869334
  Au      9.186580      5.460570      7.627909
  Au      9.306578      4.496721      5.183783
  Au     10.213129      7.474941      9.149904
  Au      9.871352      9.812101      7.850549
  Au      7.469282      6.438822      5.598506
  Mn      7.964323      7.935948      7.820841
11
Coordinates from ORCA-job pbe E -2509.027096279336
  Au      5.741147      7.780573      9.243671
  Au      5.828502      8.321786      6.334525
  Au      4.617860     10.001157      8.185925
  Au      7.264314     10.477432      7.755958
  Au      7.760440      6.171216      9.882221
  Au      9.178838      5.414961      7.623358
  Au      9.300150      4.492980      5.163627
  Au     10.242126      7.455783      9.145726
  Au      9.868809      9.817188      7.861131
  Au      7.508457      6.463770      5.591770
  Mn      7.993075      7.929849      7.796931
11
Coordinates from ORCA-job pbe E -2509.027358041731
  Au      5.733666      7.776778      9.243430
  Au      5.863405      8.346657      6.338973
  Au      4.588339     10.013553      8.186963
  Au      7.254727     10.466721      7.743523
  Au      7.773669      6.150407      9.875433
  Au      9.185481      5.384992      7.656452
  Au      9.286577      4.500193      5.188159
  Au     10.263240      7.458873      9.122168
  Au      9.851874      9.814036      7.847396
  Au      7.514894      6.496684      5.567416
  Mn      7.987848      7.917801      7.814931
11
Coordinates from ORCA-job pbe E -2509.027555219659
  Au      5.766096      7.831118      9.252645
  Au      5.844981      8.342860      6.356585
  Au      4.583704     10.020203      8.166471
  Au      7.252071     10.450869      7.754955
  Au      7.773583      6.119491      9.850492
  Au      9.180843      5.386275      7.652658
  Au      9.285093      4.478695      5.183276
  Au     10.245494      7.470060      9.103860
  Au      9.829418      9.838514      7.883904
  Au      7.528655      6.479536      5.572408
  Mn      8.013780      7.909075      7.807589
11
Coordinates from ORCA-job pbe E -2509.027878425524
  Au      5.777324      7.858889      9.264565
  Au      5.835907      8.331985      6.358493
  Au      4.574565     10.026682      8.160788
  Au      7.232952     10.448362      7.750000
  Au      7.770508      6.145800      9.849838
  Au      9.185562      5.391499      7.640404
  Au      9.306589      4.496077      5.168557
  Au     10.261795      7.443799      9.118564
  Au      9.837975      9.817710      7.897532
  Au      7.515657      6.461518      5.577576
  Mn      8.004884      7.904374      7.798527
11
Coordinates from ORCA-job pbe E -2509.028021867698
  Au      5.806943      7.908362      9.296175
  Au      5.811279      8.274501      6.369153
  Au      4.573620     10.035088      8.128706
  Au      7.236851     10.445829      7.746491
  Au      7.754664      6.159371      9.853089
  Au      9.175483      5.357760      7.646378
  Au      9.339813      4.551691      5.146109
  Au     10.259687      7.426421      9.107665
  Au      9.837189      9.813304      7.919730
  Au      7.491759      6.460989      5.581871
  Mn      8.016432      7.893379      7.789475
11
Coordinates from ORCA-job pbe E -2509.028317040853
  Au      5.823570      7.950381      9.312668
  Au      5.814972      8.281174      6.368878
  Au      4.549992     10.038683      8.131959
  Au      7.222408     10.440689      7.740778
  Au      7.756015      6.159028      9.833854
  Au      9.177223      5.354907      7.639158
  Au      9.337202      4.523848      5.149313
  Au     10.282347      7.416061      9.100297
  Au      9.813403      9.821632      7.956336
  Au      7.507485      6.458225      5.571466
  Mn      8.019102      7.882066      7.780135
11
Coordinates from ORCA-job pbe E -2509.028431393739
  Au      5.869260      8.023631      9.327380
  Au      5.820868      8.280311      6.379906
  Au      4.524432     10.042087      8.107803
  Au      7.199609     10.407465      7.749168
  Au      7.750956      6.156884      9.822763
  Au      9.169948      5.340323      7.640136
  Au      9.345314      4.533716      5.135187
  Au     10.287963      7.409718      9.083917
  Au      9.797605      9.831994      7.995680
  Au      7.502490      6.440484      5.573216
  Mn      8.035275      7.860081      7.769686
11
Coordinates from ORCA-job pbe E -2509.028518672509
  Au      5.870855      8.018365      9.338795
  Au      5.816002      8.270408      6.372707
  Au      4.533005     10.040058      8.116012
  Au      7.206705     10.423107      7.738338
  Au      7.752738      6.157416      9.812568
  Au      9.162862      5.341477      7.639186
  Au      9.344562      4.520279      5.140698
  Au     10.286424      7.414050      9.077214
  Au      9.796157      9.848715      8.024574
  Au      7.499572      6.432733      5.561378
  Mn      8.034836      7.860084      7.763373
11
Coordinates from ORCA-job pbe E -2509.028577120817
  Au      5.873805      8.021535      9.343572
  Au      5.814889      8.265985      6.370156
  Au      4.533397     10.032122      8.104381
  Au      7.210377     10.416727      7.739935
  Au      7.756351      6.168929      9.824161
  Au      9.157369      5.339586      7.634805
  Au      9.340008      4.518526      5.137396
  Au     10.295314      7.411136      9.073936
  Au      9.791183      9.852041      8.039639
  Au      7.496526      6.440185      5.557614
  Mn      8.034499      7.859924      7.759247
11
Coordinates from ORCA-job pbe E -2509.028624704139
  Au      5.880038      8.024719      9.341765
  Au      5.818198      8.266148      6.369069
  Au      4.529960     10.027800      8.099868
  Au      7.207968     10.410146      7.743211
  Au      7.760119      6.174037      9.829315
  Au      9.150777      5.338019      7.634223
  Au      9.336045      4.515952      5.136970
  Au     10.295173      7.411736      9.068539
  Au      9.794638      9.860905      8.054711
  Au      7.492019      6.436735      5.552436
  Mn      8.038783      7.860498      7.754736
11
Coordinates from ORCA-job pbe E -2509.028666301158
  Au      5.886305      8.026810      9.337666
  Au      5.824013      8.267710      6.364167
  Au      4.525576     10.019760      8.098856
  Au      7.205830     10.403035      7.745027
  Au      7.770578      6.186647      9.836346
  Au      9.137562      5.335705      7.633168
  Au      9.328100      4.506129      5.137660
  Au     10.296972      7.411441      9.057262
  Au      9.794550      9.874378      8.085322
  Au      7.489315      6.430767      5.543414
  Mn      8.044918      7.864314      7.745956
11
Coordinates from ORCA-job pbe E -2509.028679891699
  Au      5.885924      8.024376      9.334897
  Au      5.824825      8.268069      6.361490
  Au      4.522962     10.018102      8.096601
  Au      7.203787     10.404173      7.747519
  Au      7.778721      6.190790      9.839553
  Au      9.133344      5.336778      7.631082
  Au      9.322813      4.496924      5.140376
  Au     10.300372      7.409302      9.051449
  Au      9.794161      9.879145      8.099653
  Au      7.489709      6.430328      5.539770
  Mn      8.047102      7.868708      7.742453
11
Coordinates from ORCA-job pbe E -2509.028689597463
  Au      5.884742      8.021109      9.331544
  Au      5.826721      8.270017      6.358784
  Au      4.520795     10.016358      8.097651
  Au      7.201586     10.407167      7.747624
  Au      7.786018      6.198052      9.841763
  Au      9.128430      5.333200      7.632224
  Au      9.319324      4.491182      5.142194
  Au     10.304479      7.405374      9.043827
  Au      9.789560      9.880364      8.111005
  Au      7.493190      6.430898      5.538659
  Mn      8.048874      7.872975      7.739568
11
Coordinates from ORCA-job pbe E -2509.028693022453
  Au      5.885102      8.021661      9.330323
  Au      5.826873      8.270201      6.358395
  Au      4.519555     10.016979      8.095502
  Au      7.199695     10.409649      7.749476
  Au      7.788075      6.198719      9.841993
  Au      9.128004      5.331396      7.632377
  Au      9.318552      4.489577      5.142494
  Au     10.307226      7.403331      9.040376
  Au      9.786763      9.880037      8.114166
  Au      7.494153      6.431157      5.540495
  Mn      8.049722      7.873988      7.739246
11
Coordinates from ORCA-job pbe E -2509.028695000145
  Au      5.885268      8.020587      9.328622
  Au      5.827937      8.271582      6.357935
  Au      4.519145     10.017156      8.094405
  Au      7.198607     10.411666      7.750942
  Au      7.788825      6.198927      9.842140
  Au      9.128072      5.329675      7.633258
  Au      9.317962      4.489248      5.142680
  Au     10.308949      7.402596      9.038147
  Au      9.784930      9.879995      8.114714
  Au      7.494100      6.430964      5.542278
  Mn      8.049924      7.874299      7.739724
11
Coordinates from ORCA-job pbe E -2509.028696502432
  Au      5.886047      8.020022      9.326835
  Au      5.829368      8.273120      6.357015
  Au      4.518665     10.016729      8.093377
  Au      7.197730     10.412970      7.753070
  Au      7.789236      6.198903      9.842401
  Au      9.128158      5.328717      7.633630
  Au      9.316842      4.488248      5.142844
  Au     10.310196      7.402747      9.036408
  Au      9.783740      9.880921      8.115757
  Au      7.493422      6.430130      5.543437
  Mn      8.050316      7.874187      7.740070
11
Coordinates from ORCA-job pbe E -2509.028697882842
  Au      5.886539      8.018839      9.324965
  Au      5.831067      8.275129      6.355451
  Au      4.518142     10.015709      8.092777
  Au      7.197135     10.413789      7.755551
  Au      7.789914      6.199106      9.842820
  Au      9.128368      5.328685      7.633783
  Au      9.314898      4.486355      5.143384
  Au     10.311205      7.403455      9.035361
  Au      9.783222      9.882101      8.116676
  Au      7.492708      6.429438      5.543653
  Mn      8.050521      7.874090      7.740421
11
Coordinates from ORCA-job pbe E -2509.028699800406
  Au      5.887094      8.017920      9.323161
  Au      5.832991      8.277470      6.353140
  Au      4.517217     10.014153      8.092269
  Au      7.196503     10.414070      7.759013
  Au      7.790853      6.199791      9.843347
  Au      9.128796      5.329198      7.633650
  Au      9.312181      4.483504      5.144162
  Au     10.312097      7.404448      9.034641
  Au      9.782985      9.883430      8.117759
  Au      7.492164      6.428845      5.543110
  Mn      8.050838      7.873866      7.740592
11
Coordinates from ORCA-job pbe E -2509.028702443875
  Au      5.887132      8.016820      9.321527
  Au      5.835089      8.280237      6.350017
  Au      4.516001     10.012191      8.091785
  Au      7.195892     10.413848      7.763727
  Au      7.792222      6.201086      9.843845
  Au      9.129760      5.330343      7.633376
  Au      9.308657      4.479810      5.145297
  Au     10.312894      7.405644      9.034427
  Au      9.783153      9.884466      8.118323
  Au      7.491891      6.428570      5.541886
  Mn      8.051027      7.873681      7.740633
11
Coordinates from ORCA-job pbe E -2509.028711063984
  Au      5.886361      8.015403      9.319823
  Au      5.836384      8.283266      6.346668
  Au      4.515044     10.012110      8.092448
  Au      7.195917     10.413178      7.771412
  Au      7.793839      6.202021      9.842534
  Au      9.132073      5.332307      7.634643
  Au      9.306321      4.474768      5.148165
  Au     10.312584      7.406413      9.033546
  Au      9.782327      9.885216      8.116935
  Au      7.492207      6.428548      5.539478
  Mn      8.050662      7.873466      7.739190
11
Coordinates from ORCA-job pbe E -2509.028721497666
  Au      5.883215      8.013372      9.318168
  Au      5.838278      8.286822      6.340767
  Au      4.514508     10.010973      8.092740
  Au      7.195395     10.409321      7.787105
  Au      7.793472      6.203654      9.840154
  Au      9.137523      5.335439      7.635040
  Au      9.300256      4.470466      5.154986
  Au     10.313647      7.411863      9.035342
  Au      9.785615      9.883548      8.111038
  Au      7.492694      6.428893      5.535103
  Mn      8.049116      7.872344      7.734400
11
Coordinates from ORCA-job pbe E -2509.028726726189
  Au      5.881843      8.015637      9.320774
  Au      5.836766      8.285182      6.342085
  Au      4.513903     10.012353      8.091410
  Au      7.195850     10.407745      7.792621
  Au      7.791140      6.205161      9.840286
  Au      9.140558      5.335600      7.638484
  Au      9.304972      4.472234      5.149855
  Au     10.310858      7.410570      9.039364
  Au      9.789177      9.881335      8.103524
  Au      7.490717      6.428765      5.535760
  Mn      8.047934      7.872116      7.730679
11
Coordinates from ORCA-job pbe E -2509.028732499918
  Au      5.883037      8.017041      9.321034
  Au      5.834188      8.283314      6.347132
  Au      4.513993     10.015289      8.089882
  Au      7.197522     10.409606      7.790857
  Au      7.790693      6.204014      9.840120
  Au      9.138989      5.332471      7.639137
  Au      9.310465      4.481376      5.150327
  Au     10.307143      7.405860      9.036631
  Au      9.787521      9.880095      8.100560
  Au      7.491885      6.425872      5.540406
  Mn      8.048284      7.871757      7.728758
11
Coordinates from ORCA-job pbe E -2509.028735511114
  Au      5.883322      8.017126      9.319486
  Au      5.834563      8.282940      6.347888
  Au      4.515261     10.016427      8.090865
  Au      7.197293     10.410122      7.790475
  Au      7.790521      6.202833      9.839784
  Au      9.137432      5.329921      7.637985
  Au      9.311812      4.479404      5.150498
  Au     10.307710      7.410042      9.035723
  Au      9.786122      9.880008      8.102555
  Au      7.491099      6.426669      5.541064
  Mn      8.048584      7.871202      7.728521
11
Coordinates from ORCA-job pbe E -2509.028737122650
  Au      5.883903      8.016962      9.318871
  Au      5.835811      8.283681      6.346243
  Au      4.514161     10.014924      8.090009
  Au      7.195157     10.410070      7.792921
  Au      7.790514      6.203700      9.839852
  Au      9.137883      5.330617      7.638672
  Au      9.308946      4.478160      5.150942
  Au     10.309452      7.409150      9.035606
  Au      9.787622      9.881320      8.103160
  Au      7.491338      6.426723      5.540486
  Mn      8.048932      7.871388      7.728081
11
Coordinates from ORCA-job pbe E -2509.028737877709
  Au      5.884252      8.017400      9.319058
  Au      5.835468      8.283521      6.346439
  Au      4.513345     10.014593      8.089623
  Au      7.196230     10.409675      7.794018
  Au      7.789920      6.204435      9.840152
  Au      9.137919      5.330259      7.639416
  Au      9.308830      4.478617      5.150115
  Au     10.309310      7.409380      9.035563
  Au      9.787620      9.881421      8.103050
  Au      7.491571      6.426186      5.540197
  Mn      8.049255      7.871208      7.727211
11
Coordinates from ORCA-job pbe E -2509.028738732233
  Au      5.884784      8.018378      9.318379
  Au      5.835609      8.283480      6.346676
  Au      4.513274     10.014292      8.088942
  Au      7.196137     10.409622      7.795554
  Au      7.790248      6.204701      9.840261
  Au      9.137337      5.329381      7.639858
  Au      9.309355      4.478700      5.150691
  Au     10.309135      7.408780      9.033643
  Au      9.786867      9.882114      8.104016
  Au      7.491160      6.426101      5.540488
  Mn      8.049815      7.871144      7.726336
11
Coordinates from ORCA-job pbe E -2509.028739949006
  Au      5.886605      8.019602      9.317724
  Au      5.835527      8.283407      6.346618
  Au      4.512264     10.015091      8.088089
  Au      7.194978     10.409687      7.797562
  Au      7.790830      6.205419      9.840296
  Au      9.135654      5.327265      7.640329
  Au      9.310316      4.477965      5.151461
  Au     10.309792      7.408528      9.030370
  Au      9.785901      9.883531      8.107386
  Au      7.490735      6.425323      5.540298
  Mn      8.051117      7.870876      7.724711
11
Coordinates from ORCA-job pbe E -2509.028741015624
  Au      5.888367      8.021890      9.316929
  Au      5.835994      8.282897      6.345886
  Au      4.511333     10.013850      8.086717
  Au      7.193786     10.408583      7.799540
  Au      7.791877      6.207114      9.840869
  Au      9.133256      5.325528      7.641055
  Au      9.308865      4.477100      5.151451
  Au     10.311735      7.408606      9.027713
  Au      9.785068      9.885786      8.112575
  Au      7.490425      6.424628      5.539129
  Mn      8.053014      7.870712      7.722980
11
Coordinates from ORCA-job pbe E -2509.028741383115
  Au      5.889402      8.022962      9.317636
  Au      5.836111      8.282349      6.345020
  Au      4.510025     10.013225      8.086129
  Au      7.193564     10.407599      7.800184
  Au      7.792185      6.208748      9.841043
  Au      9.132139      5.325265      7.641045
  Au      9.308603      4.476822      5.151842
  Au     10.312863      7.407777      9.026703
  Au      9.785053      9.886524      8.115151
  Au      7.489875      6.424621      5.538170
  Mn      8.053897      7.870803      7.721920
11
Coordinates from ORCA-job pbe E -2509.028741587091
  Au      5.889409      8.023460      9.318310
  Au      5.835269      8.282361      6.345343
  Au      4.510296     10.013361      8.086156
  Au      7.193365     10.406924      7.799612
  Au      7.792411      6.209643      9.841122
  Au      9.131703      5.325674      7.640959
  Au      9.309367      4.476808      5.151521
  Au     10.313044      7.407385      9.026774
  Au      9.785036      9.886023      8.116108
  Au      7.489921      6.424161      5.537437
  Mn      8.053897      7.870895      7.721502
