11
E=  -1135.59911947;c=0;m=5
Au     10.354280466791090      5.439908992095000      7.841594986291050
Au      8.506482017056721      3.438733597159410      8.615454952122480
Au     10.320665282789630      4.587098529460920     10.541931065137170
Au      7.555472656065860      4.158639126960720     11.242206772245989
Au      8.865638893984020      6.566611821103810     11.951535656984580
Au      6.026631276285520      4.769386499309170      8.938085788625720
Au      8.145135673930330      8.495649442311880     10.287006041437460
Au      7.362415277405710      9.853709436963509      8.027462544538020
Au      9.108673947349580      7.766665475309370      7.627093876914410
Au      6.308293210277540      7.332865546368780      8.336800665422730
Cr      8.324620628063849      5.959599472957460      9.443135110280300
