15
E=  -1581.16550646;c=0;m=4
Au      8.476148482817131      8.115018519855941      4.581247303650700
Au      4.222508436341720      6.981397533860250      6.527916804601200
Au      7.415854357072790      5.244875821026510      8.130411154302401
Au     10.424659756403800      8.458285592011730      6.759599362826570
Au      9.362244958196250      5.857433864559100      6.144251739225340
Au      6.636394583862890      6.195336445771780      5.514835724633060
Au      7.862598834949600      7.060630674029570     10.327026958140539
Au      5.307679612475200      6.808891607309930      9.139632015063331
Au      6.066414153522710      9.008589698453660      5.808454884361530
Au      8.501164357753220     10.440887201168399      6.134583594840160
Au      6.454118984925090     11.029292294313670      7.837182538064130
Au      4.335745950028350      9.253502232375091      8.112261181680831
Au      6.312243669994990      9.380262653810741     10.120340506932470
Au      8.868854947552281      9.505845509005280      8.916243893261701
Mn      8.936580124103960      7.163365712448380      8.158859018416029
