%pal nprocs 1 end 

!PBE def2-TZVP OPT UNO
!SLOWCONV

*xyz 0 5 
  Au  7.86600643706653      7.05962177027000      4.83276470209211
  Au  8.02632741224254      5.14574111836553      6.85874077280757
  Au  5.55844632050108      5.66806860644762      5.46511535494540
  Au  5.25670751176447      8.42982299980780      5.25643972424288
  Au  5.52287470002921      4.64523747018694      8.00523736130569
  Au  4.77050855946589      6.51329544849530      9.86700213098827
  Au  3.85837891851076      6.99138665137963      7.26896175548796
  Au  7.54602037817489      9.78026475758161      8.56481027975190
  Au  4.75611240320437      9.11105744851671      8.88659531056262
  Au  7.47406738223451      5.80613129841198      9.63402123386558
  Au  6.67780959098961      8.28466288774574     10.78216543966899
  Au  5.47528759023699     10.72744290105216      6.81791940045878
  Au  9.33903688244776      7.80069387799780      7.09314614059734
  Au  7.77026312374381      9.62364999293659      5.79101273372348
  Au  9.25113651900001      8.00159172573536      9.85747410456919
  Au  10.09944562137487      5.62280877917980      8.65707929193393
  Fe  6.54036393901245      7.47302541588910      7.46863936299800
*
