16
E=  -1689.91245712;c=0;m=5
Au      7.130228821605000      9.789620455906860      7.239096704734600
Au      5.442563669472480      5.446003480306150      6.888840602501490
Au      6.742534184811070      7.497931652808500      5.586541665268100
Au      6.660439069382110      4.095228270959700      9.034374916935450
Au      9.287901687705540      8.191593666492899      6.376991855296890
Au     10.363688914793309      7.048024852394540      8.680804094881520
Au      8.315728587830151      5.655631555982730      7.229469610713560
Au      9.623735963850150      9.762291998910021      8.699330332179530
Au      8.965111896302140      5.200779540979440     10.185488877110700
Au      8.475619038450590      7.948770292154520     10.723805870637330
Au      5.531730569589380      8.355766021120781     10.469353887070680
Au      7.341222474510130     10.428492395520539     10.116805875926390
Au      4.431385527405140      5.993530107751090      9.517815794626740
Au      4.890380355089400     10.562533526624311      8.744963140633169
Au      4.784828101919850      8.089797793919180      7.539506478284820
Mn      6.748897417283710      6.218579198169010     10.245358083198751
