17
Coordinates from ORCA-job pbe E -3436.757515377237
  Au      7.694536      9.660324      8.310589
  Au      4.856680      8.922497      8.880994
  Au      7.186651      5.852743      9.789944
  Au      4.757494      6.805296     10.735405
  Au      3.758459      8.061016      6.427171
  Au      6.891928      8.645176     10.808530
  Au      5.552657     10.359936      6.580371
  Au      4.868672      5.983937      8.087909
  Au      5.292387      5.900414      5.313196
  Au      5.653018      8.598541      4.266615
  Au      9.357068      7.576824      6.962396
  Au      8.091368      9.600758      5.498254
  Au      7.935759      6.811858      4.646512
  Au      9.352514      7.909281      9.759572
  Au      7.435610      5.216292      6.993533
  Au      9.661625      5.338862      8.644984
  Fe      6.463363      7.826614      6.708893
17
Coordinates from ORCA-job pbe E -3436.759786661584
  Au      7.689078      9.650420      8.305389
  Au      4.873354      8.912616      8.853979
  Au      7.176496      5.872639      9.752190
  Au      4.768457      6.816370     10.690184
  Au      3.783500      8.042666      6.467883
  Au      6.886055      8.643637     10.763164
  Au      5.569081     10.339396      6.609376
  Au      4.882073      5.998426      8.075981
  Au      5.303019      5.899220      5.339096
  Au      5.669719      8.594049      4.307895
  Au      9.324456      7.582027      6.956244
  Au      8.091780      9.585122      5.533946
  Au      7.940256      6.799100      4.696639
  Au      9.324714      7.914378      9.723189
  Au      7.426554      5.237252      6.991572
  Au      9.630366      5.362689      8.617096
  Fe      6.470831      7.820362      6.731044
17
Coordinates from ORCA-job pbe E -3436.760173327487
  Au      7.695051      9.655892      8.317698
  Au      4.872745      8.911826      8.872880
  Au      7.174792      5.881912      9.741279
  Au      4.769720      6.820294     10.687378
  Au      3.772000      8.035227      6.462365
  Au      6.882236      8.639988     10.756062
  Au      5.568241     10.351339      6.599305
  Au      4.881511      5.993014      8.085336
  Au      5.295461      5.897069      5.322534
  Au      5.676548      8.594550      4.321566
  Au      9.336589      7.577977      6.970110
  Au      8.091333      9.597009      5.524316
  Au      7.940460      6.787311      4.687933
  Au      9.320711      7.910779      9.715367
  Au      7.429562      5.230094      7.000478
  Au      9.629991      5.367350      8.612707
  Fe      6.472839      7.818738      6.737552
17
Coordinates from ORCA-job pbe E -3436.760668549427
  Au      7.700663      9.674309      8.320779
  Au      4.863085      8.923261      8.865609
  Au      7.171811      5.884836      9.732351
  Au      4.748254      6.822090     10.696512
  Au      3.771746      8.024253      6.465681
  Au      6.877199      8.648280     10.759603
  Au      5.568685     10.352701      6.601421
  Au      4.874748      5.982606      8.080637
  Au      5.290759      5.897967      5.310503
  Au      5.687956      8.595458      4.345537
  Au      9.342315      7.585867      6.956082
  Au      8.093200      9.598091      5.526081
  Au      7.938412      6.775440      4.693940
  Au      9.329906      7.915033      9.712408
  Au      7.423937      5.217923      6.996358
  Au      9.650435      5.356672      8.601909
  Fe      6.476678      7.815584      6.749456
17
Coordinates from ORCA-job pbe E -3436.761104148572
  Au      7.704326      9.691747      8.319303
  Au      4.859396      8.929446      8.858540
  Au      7.170435      5.901864      9.716429
  Au      4.746456      6.826332     10.693576
  Au      3.770743      8.014248      6.471098
  Au      6.874184      8.642556     10.752134
  Au      5.567556     10.354460      6.613273
  Au      4.873219      5.973552      8.076666
  Au      5.290131      5.895354      5.310190
  Au      5.695051      8.597615      4.358939
  Au      9.342881      7.591804      6.947394
  Au      8.102237      9.597097      5.533102
  Au      7.938125      6.763556      4.699954
  Au      9.323566      7.910047      9.706055
  Au      7.416707      5.209080      6.995551
  Au      9.652130      5.360138      8.596056
  Fe      6.482645      7.811473      6.766605
17
Coordinates from ORCA-job pbe E -3436.761636214855
  Au      7.713050      9.721136      8.321622
  Au      4.850694      8.935367      8.856531
  Au      7.169076      5.935150      9.688899
  Au      4.741644      6.833052     10.684212
  Au      3.775906      7.997022      6.477359
  Au      6.870211      8.637024     10.736159
  Au      5.571712     10.353038      6.621338
  Au      4.861951      5.956326      8.070422
  Au      5.292629      5.897417      5.313303
  Au      5.709982      8.603188      4.387105
  Au      9.348597      7.594924      6.937760
  Au      8.104155      9.596474      5.541907
  Au      7.932539      6.746714      4.713327
  Au      9.311007      7.906304      9.692395
  Au      7.409047      5.188419      6.987603
  Au      9.651838      5.366357      8.581606
  Fe      6.495752      7.802456      6.803320
17
Coordinates from ORCA-job pbe E -3436.761993436276
  Au      7.722447      9.748290      8.324731
  Au      4.840907      8.940078      8.852942
  Au      7.167110      5.964922      9.664059
  Au      4.737152      6.833042     10.672158
  Au      3.781078      7.993729      6.477974
  Au      6.865807      8.640126     10.721860
  Au      5.572975     10.350949      6.632785
  Au      4.852290      5.930767      8.075007
  Au      5.294144      5.902405      5.314468
  Au      5.717607      8.604400      4.403375
  Au      9.356265      7.595674      6.928316
  Au      8.108305      9.594767      5.549886
  Au      7.928150      6.744350      4.715444
  Au      9.303414      7.908787      9.679549
  Au      7.405235      5.158454      6.989047
  Au      9.646231      5.367008      8.569679
  Fe      6.510671      7.792621      6.843586
17
Coordinates from ORCA-job pbe E -3436.762242841857
  Au      7.729600      9.768191      8.328076
  Au      4.828667      8.941702      8.865085
  Au      7.165581      5.988034      9.643048
  Au      4.732289      6.832157     10.664518
  Au      3.789227      7.993628      6.476851
  Au      6.859339      8.646807     10.719407
  Au      5.575502     10.348301      6.627683
  Au      4.838890      5.914024      8.067192
  Au      5.300517      5.905307      5.326610
  Au      5.721007      8.600518      4.411314
  Au      9.368524      7.591143      6.925467
  Au      8.104134      9.593382      5.551024
  Au      7.925562      6.746707      4.723441
  Au      9.306452      7.911276      9.670183
  Au      7.398885      5.138914      6.976311
  Au      9.640782      5.367157      8.557004
  Fe      6.524831      7.783122      6.881654
17
Coordinates from ORCA-job pbe E -3436.762397121633
  Au      7.731362      9.767480      8.330684
  Au      4.823714      8.941408      8.864606
  Au      7.164629      5.998307      9.637689
  Au      4.734853      6.829016     10.660154
  Au      3.794443      8.003447      6.479139
  Au      6.860375      8.658250     10.717361
  Au      5.578409     10.340334      6.628567
  Au      4.828430      5.904167      8.065275
  Au      5.299081      5.911381      5.322267
  Au      5.717868      8.593797      4.410528
  Au      9.376877      7.587529      6.924396
  Au      8.096940      9.590345      5.552454
  Au      7.925481      6.758870      4.721221
  Au      9.308934      7.921523      9.670590
  Au      7.399922      5.124679      6.967351
  Au      9.635962      5.364539      8.559706
  Fe      6.532509      7.775298      6.902879
17
Coordinates from ORCA-job pbe E -3436.762467313970
  Au      7.728594      9.764528      8.329356
  Au      4.820358      8.946378      8.871370
  Au      7.164544      5.997949      9.631151
  Au      4.739224      6.821345     10.659506
  Au      3.795555      8.013691      6.475887
  Au      6.863101      8.664585     10.726700
  Au      5.578107     10.334659      6.620626
  Au      4.823025      5.903691      8.063559
  Au      5.299430      5.913872      5.320228
  Au      5.713354      8.581719      4.404370
  Au      9.378833      7.590698      6.923979
  Au      8.093862      9.583443      5.552052
  Au      7.932255      6.769542      4.724850
  Au      9.316787      7.925391      9.672641
  Au      7.400881      5.124958      6.964211
  Au      9.624465      5.362964      8.557180
  Fe      6.537413      7.770955      6.917200
17
Coordinates from ORCA-job pbe E -3436.762507271219
  Au      7.726885      9.757136      8.328100
  Au      4.825733      8.949454      8.871427
  Au      7.160199      5.997493      9.630377
  Au      4.741496      6.823018     10.652723
  Au      3.794804      8.016477      6.483067
  Au      6.861382      8.665029     10.730596
  Au      5.575427     10.329602      6.619924
  Au      4.823822      5.909332      8.059042
  Au      5.297453      5.913234      5.320030
  Au      5.708132      8.576551      4.401940
  Au      9.387025      7.594374      6.929234
  Au      8.089427      9.581243      5.546201
  Au      7.932724      6.772449      4.720524
  Au      9.320258      7.925833      9.681214
  Au      7.400437      5.129415      6.956914
  Au      9.625076      5.361851      8.561235
  Fe      6.539507      7.767878      6.922320
17
Coordinates from ORCA-job pbe E -3436.762535305594
  Au      7.724313      9.750554      8.329076
  Au      4.828265      8.952912      8.872195
  Au      7.162582      5.997424      9.629948
  Au      4.741064      6.827654     10.656682
  Au      3.791797      8.013897      6.483209
  Au      6.865718      8.662169     10.731467
  Au      5.575082     10.328376      6.618321
  Au      4.821337      5.911441      8.055188
  Au      5.295664      5.913383      5.314515
  Au      5.710032      8.576990      4.403657
  Au      9.384752      7.598331      6.932079
  Au      8.089655      9.579041      5.546583
  Au      7.935354      6.768549      4.722529
  Au      9.318035      7.924285      9.681623
  Au      7.399811      5.132528      6.955074
  Au      9.627541      5.367526      8.559338
  Fe      6.538786      7.765310      6.923382
17
Coordinates from ORCA-job pbe E -3436.762549341023
  Au      7.723642      9.750573      8.327941
  Au      4.830449      8.955736      8.872839
  Au      7.160496      5.996828      9.627079
  Au      4.739599      6.830747     10.654788
  Au      3.791144      8.011140      6.484875
  Au      6.865603      8.657767     10.733078
  Au      5.575339     10.328971      6.615097
  Au      4.822319      5.912251      8.057044
  Au      5.295303      5.914785      5.311911
  Au      5.711124      8.576340      4.407577
  Au      9.383443      7.602690      6.929921
  Au      8.089077      9.579262      5.545226
  Au      7.936706      6.765095      4.725636
  Au      9.316645      7.921676      9.683753
  Au      7.399873      5.133357      6.956326
  Au      9.629534      5.369306      8.556109
  Fe      6.539492      7.763846      6.925665
17
Coordinates from ORCA-job pbe E -3436.762556981835
  Au      7.723383      9.750170      8.327392
  Au      4.831824      8.960152      8.870839
  Au      7.159252      5.994651      9.622898
  Au      4.736597      6.832957     10.653157
  Au      3.791178      8.010678      6.487468
  Au      6.866795      8.655216     10.735052
  Au      5.574117     10.329397      6.613550
  Au      4.822231      5.911344      8.057106
  Au      5.295658      5.914870      5.312863
  Au      5.711534      8.574583      4.408758
  Au      9.384589      7.606217      6.931677
  Au      8.088029      9.580260      5.542490
  Au      7.937258      6.764481      4.726668
  Au      9.316989      7.918656      9.685116
  Au      7.400050      5.132958      6.958279
  Au      9.630157      5.371827      8.552761
  Fe      6.540149      7.761954      6.928791
17
Coordinates from ORCA-job pbe E -3436.762566218458
  Au      7.722893      9.747921      8.327359
  Au      4.834246      8.963406      8.872027
  Au      7.156919      5.993127      9.620461
  Au      4.735349      6.836406     10.651513
  Au      3.791475      8.012012      6.488275
  Au      6.867243      8.653758     10.735884
  Au      5.573757     10.329639      6.612436
  Au      4.820687      5.908869      8.057300
  Au      5.296083      5.914256      5.314379
  Au      5.710499      8.573458      4.408134
  Au      9.385267      7.610211      6.931577
  Au      8.088013      9.580328      5.541609
  Au      7.938277      6.765735      4.727171
  Au      9.316417      7.918467      9.686762
  Au      7.399757      5.129870      6.957134
  Au      9.632128      5.373958      8.551110
  Fe      6.540780      7.758948      6.931735
17
Coordinates from ORCA-job pbe E -3436.762574264328
  Au      7.722306      9.746931      8.326644
  Au      4.835947      8.967144      8.872603
  Au      7.154638      5.991901      9.617462
  Au      4.735002      6.839865     10.649882
  Au      3.793421      8.012826      6.490064
  Au      6.868189      8.652363     10.736476
  Au      5.575327     10.329583      6.610765
  Au      4.816786      5.905456      8.057381
  Au      5.296573      5.914255      5.315704
  Au      5.709931      8.572743      4.407802
  Au      9.386791      7.613771      6.931938
  Au      8.085647      9.581606      5.541303
  Au      7.938465      6.766995      4.728980
  Au      9.315716      7.918083      9.688218
  Au      7.400751      5.124919      6.954814
  Au      9.633108      5.376821      8.549918
  Fe      6.541189      7.755108      6.934912
17
Coordinates from ORCA-job pbe E -3436.762577726810
  Au      7.722617      9.747103      8.327848
  Au      4.837028      8.970185      8.872827
  Au      7.152991      5.990638      9.614756
  Au      4.735240      6.841288     10.648471
  Au      3.795301      8.012828      6.491788
  Au      6.869559      8.651716     10.736806
  Au      5.575650     10.330067      6.609344
  Au      4.814159      5.903300      8.057252
  Au      5.296989      5.913386      5.316997
  Au      5.709816      8.572411      4.407657
  Au      9.387465      7.616675      6.932095
  Au      8.084681      9.582319      5.540716
  Au      7.938520      6.767321      4.731251
  Au      9.315065      7.918244      9.689125
  Au      7.401474      5.121871      6.953356
  Au      9.632482      5.378441      8.548942
  Fe      6.540753      7.752575      6.935634
17
Coordinates from ORCA-job pbe E -3436.762579894665
  Au      7.722206      9.747631      8.327318
  Au      4.837493      8.971830      8.873584
  Au      7.152397      5.990227      9.613166
  Au      4.735771      6.841996     10.647861
  Au      3.796102      8.012834      6.492862
  Au      6.869665      8.652049     10.737040
  Au      5.576466     10.329929      6.609694
  Au      4.812886      5.902193      8.056915
  Au      5.296595      5.912859      5.316292
  Au      5.709863      8.571842      4.407863
  Au      9.388266      7.617816      6.932962
  Au      8.084259      9.582362      5.541721
  Au      7.938822      6.767410      4.732386
  Au      9.315550      7.918423      9.688873
  Au      7.401721      5.120490      6.952643
  Au      9.631819      5.379527      8.548681
  Fe      6.539907      7.750953      6.935006
