17
E=  -1817.55112181;c=0;m=5
Au      4.553848134454840      7.320778580225750     10.096045598125350
Au      5.752650007964510      9.869433271473730     10.103349301028199
Au      8.014830191237170      9.781355067142099      8.412482541849180
Au     10.796164449215199      5.948033916923810      7.467044973791270
Au      9.533624926841100      8.218051848443800      6.487186860103080
Au      9.936047194620359      7.954679178572480      9.308863814850509
Au      8.698160492006300      5.322992061608950      9.301641287537629
Au      7.335122780223830      7.568157257271890     10.262934386645229
Au      4.125401692360250      7.475379550472490      7.345644661638970
Au      5.642231587007040      5.827636950355970      5.562347157873650
Au      5.151387887190260      8.609393258547501      4.928681063637380
Au      7.742300813683030      7.392352577403640      4.379078413140410
Au      8.244592992889450      5.477129037587310      6.479930777207200
Au      6.068150216989420      5.641380428713320      8.401168225098139
Au      7.605292364465100     10.003171528991270      5.573867791421870
Au      5.365174505401290     10.111744542412010      7.353092602671650
Fe      6.794602573450860      7.831148523853960      6.957044263380250
