16
Coordinates from ORCA-job pbe E -3188.211294385391
  Au      9.588524      9.188519      9.548483
  Au      7.623760      8.573375     11.425864
  Au      5.713982      6.471997     11.160028
  Au      7.318696     10.768839      9.806840
  Au      4.950019      6.138281      8.553141
  Au      5.480683     10.785986      7.713425
  Au      5.339800      8.720744      9.598577
  Au     10.423426      6.606725      9.749583
  Au      9.660278      7.463760      7.218325
  Au      8.390435      5.922088     11.430851
  Au      8.947113      4.850278      8.152144
  Au      7.878432      7.921920      5.174996
  Au      6.892035      5.762287      6.656235
  Au      8.018692      9.707999      7.281751
  Au      5.563628      8.189318      6.763825
  Mn      7.599515      7.072500      9.038035
16
Coordinates from ORCA-job pbe E -3188.211343505078
  Au      9.589888      9.189244      9.550067
  Au      7.624009      8.571204     11.430840
  Au      5.716330      6.467979     11.157845
  Au      7.317601     10.771014      9.809643
  Au      4.953522      6.141593      8.554580
  Au      5.478829     10.788161      7.710057
  Au      5.336058      8.728045      9.595884
  Au     10.426714      6.606136      9.750827
  Au      9.660435      7.462722      7.216557
  Au      8.392823      5.917563     11.429921
  Au      8.943344      4.850741      8.154374
  Au      7.876220      7.920593      5.175176
  Au      6.893003      5.759604      6.656182
  Au      8.017450      9.709391      7.280686
  Au      5.563462      8.186763      6.760774
  Mn      7.599330      7.073863      9.038690
16
Coordinates from ORCA-job pbe E -3188.211401418161
  Au      9.586129      9.188775      9.551318
  Au      7.623701      8.565483     11.433907
  Au      5.725277      6.469301     11.149003
  Au      7.316829     10.763113      9.814951
  Au      4.961250      6.151777      8.555761
  Au      5.481547     10.784598      7.707475
  Au      5.333138      8.738687      9.589743
  Au     10.430803      6.610043      9.751905
  Au      9.657108      7.461882      7.214881
  Au      8.397115      5.911487     11.424512
  Au      8.935151      4.854380      8.164662
  Au      7.870855      7.919187      5.180064
  Au      6.893501      5.755316      6.654286
  Au      8.013100      9.708776      7.283580
  Au      5.565427      8.181858      6.756397
  Mn      7.598088      7.079951      9.039655
16
Coordinates from ORCA-job pbe E -3188.211469271209
  Au      9.584693      9.188321      9.552717
  Au      7.625684      8.559758     11.439023
  Au      5.731389      6.472908     11.148642
  Au      7.317238     10.758718      9.823956
  Au      4.961145      6.156090      8.552638
  Au      5.480212     10.789174      7.703899
  Au      5.327988      8.744468      9.588474
  Au     10.437908      6.614754      9.752627
  Au      9.656462      7.459655      7.213413
  Au      8.404132      5.903476     11.417934
  Au      8.928499      4.856337      8.182132
  Au      7.869169      7.919117      5.175753
  Au      6.893228      5.745915      6.647628
  Au      8.011491      9.711289      7.285285
  Au      5.562550      8.178432      6.746317
  Mn      7.597230      7.086204      9.041662
16
Coordinates from ORCA-job pbe E -3188.211572935458
  Au      9.583834      9.187909      9.551288
  Au      7.632182      8.554358     11.446527
  Au      5.732201      6.477929     11.149885
  Au      7.313831     10.754490      9.829676
  Au      4.959928      6.161903      8.545901
  Au      5.481503     10.786535      7.700407
  Au      5.325007      8.744578      9.587170
  Au     10.447835      6.621723      9.748810
  Au      9.653270      7.457683      7.212402
  Au      8.411993      5.893076     11.405206
  Au      8.915029      4.861053      8.204189
  Au      7.870687      7.920538      5.177921
  Au      6.894674      5.739975      6.644390
  Au      8.009121      9.710789      7.287720
  Au      5.562334      8.176159      6.737327
  Mn      7.595591      7.095919      9.043282
16
Coordinates from ORCA-job pbe E -3188.211778739865
  Au      9.584102      9.188353      9.548319
  Au      7.645746      8.549079     11.455015
  Au      5.733179      6.485724     11.148115
  Au      7.307107     10.750087      9.834368
  Au      4.955556      6.164786      8.538788
  Au      5.482518     10.779671      7.699379
  Au      5.323552      8.735979      9.587948
  Au     10.463091      6.630177      9.742138
  Au      9.650939      7.454840      7.212937
  Au      8.415201      5.882845     11.381660
  Au      8.893288      4.865977      8.239484
  Au      7.876480      7.923606      5.178393
  Au      6.897423      5.737345      6.642256
  Au      8.007008      9.709450      7.290856
  Au      5.561164      8.176601      6.727527
  Mn      7.592662      7.110097      9.044917
16
Coordinates from ORCA-job pbe E -3188.212045950514
  Au      9.585537      9.189888      9.544136
  Au      7.663307      8.549150     11.458289
  Au      5.729858      6.488074     11.149696
  Au      7.301014     10.745842      9.834204
  Au      4.949870      6.160502      8.531069
  Au      5.482383     10.769921      7.703064
  Au      5.324187      8.723150      9.589182
  Au     10.479915      6.636988      9.734704
  Au      9.650501      7.452539      7.215835
  Au      8.411456      5.876996     11.350199
  Au      8.868741      4.869314      8.277849
  Au      7.884595      7.926975      5.179145
  Au      6.902374      5.744869      6.645118
  Au      8.006555      9.705871      7.293289
  Au      5.559948      8.179861      6.721652
  Mn      7.588776      7.124675      9.044670
16
Coordinates from ORCA-job pbe E -3188.212343479099
  Au      9.588725      9.191134      9.541073
  Au      7.677941      8.547603     11.460042
  Au      5.728860      6.489869     11.145308
  Au      7.295923     10.742126      9.834314
  Au      4.948076      6.155869      8.528238
  Au      5.479024     10.763169      7.707644
  Au      5.322792      8.712655      9.589538
  Au     10.498816      6.642129      9.729878
  Au      9.651773      7.449441      7.218735
  Au      8.406550      5.871437     11.315801
  Au      8.842694      4.870218      8.318949
  Au      7.890417      7.929467      5.178099
  Au      6.910120      5.755785      6.649690
  Au      8.005971      9.702672      7.294179
  Au      5.557162      8.182226      6.717302
  Mn      7.584172      7.138815      9.043312
16
Coordinates from ORCA-job pbe E -3188.212699486664
  Au      9.593597      9.192035      9.538610
  Au      7.687787      8.545374     11.456376
  Au      5.729021      6.484815     11.142202
  Au      7.293781     10.737470      9.830833
  Au      4.950162      6.147777      8.529847
  Au      5.473196     10.759381      7.714114
  Au      5.317808      8.709565      9.586669
  Au     10.520723      6.645047      9.727975
  Au      9.655288      7.445968      7.222439
  Au      8.398677      5.866931     11.277175
  Au      8.816632      4.867001      8.361581
  Au      7.893817      7.931982      5.175227
  Au      6.922987      5.774181      6.659600
  Au      8.005221      9.699370      7.293512
  Au      5.552167      8.185709      6.716717
  Mn      7.578155      7.152009      9.039225
16
Coordinates from ORCA-job pbe E -3188.213053811459
  Au      9.597111      9.192179      9.537030
  Au      7.693692      8.542271     11.454039
  Au      5.728479      6.482825     11.136386
  Au      7.294090     10.731537      9.831644
  Au      4.956207      6.145551      8.530620
  Au      5.466199     10.760141      7.717495
  Au      5.309495      8.710579      9.584853
  Au     10.541880      6.648473      9.726641
  Au      9.656232      7.441104      7.224151
  Au      8.399020      5.856423     11.244888
  Au      8.794559      4.863892      8.404681
  Au      7.893821      7.933798      5.172817
  Au      6.935334      5.788085      6.665556
  Au      8.003242      9.696843      7.293093
  Au      5.547122      8.185847      6.713057
  Mn      7.572536      7.165067      9.035151
16
Coordinates from ORCA-job pbe E -3188.213398588844
  Au      9.600997      9.189196      9.537954
  Au      7.684741      8.531901     11.447988
  Au      5.736074      6.480367     11.135421
  Au      7.297978     10.723994      9.830207
  Au      4.969087      6.146548      8.533010
  Au      5.455712     10.769202      7.718939
  Au      5.291729      8.729488      9.580504
  Au     10.562140      6.650526      9.729100
  Au      9.657225      7.434369      7.225293
  Au      8.405710      5.842038     11.224233
  Au      8.779716      4.852282      8.438240
  Au      7.888049      7.936324      5.167313
  Au      6.954701      5.801719      6.674490
  Au      7.999317      9.695585      7.290931
  Au      5.539645      8.185818      6.710700
  Mn      7.566197      7.175259      9.027778
16
Coordinates from ORCA-job pbe E -3188.213658667968
  Au      9.599988      9.187213      9.536605
  Au      7.691832      8.527711     11.453239
  Au      5.737027      6.484094     11.134713
  Au      7.296241     10.717451      9.834453
  Au      4.968335      6.152230      8.525991
  Au      5.456624     10.765628      7.718245
  Au      5.285486      8.728524      9.582833
  Au     10.574325      6.658343      9.722291
  Au      9.652121      7.428217      7.225443
  Au      8.415447      5.830219     11.206299
  Au      8.762006      4.856986      8.475144
  Au      7.889793      7.940442      5.165988
  Au      6.963168      5.799893      6.668941
  Au      7.995351      9.693346      7.293638
  Au      5.538041      8.185600      6.700683
  Mn      7.563232      7.188720      9.027597
16
Coordinates from ORCA-job pbe E -3188.213747397494
  Au      9.594964      9.180459      9.540831
  Au      7.676986      8.520054     11.458689
  Au      5.740812      6.498622     11.143761
  Au      7.306391     10.711205      9.837071
  Au      4.970770      6.170476      8.515621
  Au      5.458204     10.770886      7.713065
  Au      5.269443      8.736098      9.590217
  Au     10.567168      6.665702      9.717317
  Au      9.641838      7.420411      7.223523
  Au      8.442467      5.820477     11.234732
  Au      8.769056      4.850433      8.465939
  Au      7.884994      7.947205      5.164394
  Au      6.978363      5.785220      6.657393
  Au      7.989815      9.690243      7.293462
  Au      5.537493      8.182325      6.693838
  Mn      7.560255      7.194800      9.022248
16
Coordinates from ORCA-job pbe E -3188.214053239144
  Au      9.598433      9.181487      9.538283
  Au      7.684741      8.515676     11.462824
  Au      5.748331      6.492423     11.134114
  Au      7.300017     10.709595      9.837250
  Au      4.974620      6.168888      8.511668
  Au      5.456184     10.764547      7.716637
  Au      5.266287      8.734814      9.591510
  Au     10.583006      6.666912      9.711629
  Au      9.641170      7.413436      7.222783
  Au      8.434582      5.821573     11.212270
  Au      8.747819      4.852155      8.496581
  Au      7.890217      7.950296      5.162686
  Au      6.981655      5.794287      6.668489
  Au      7.988331      9.688107      7.294085
  Au      5.536939      8.182327      6.689660
  Mn      7.556683      7.208092      9.021633
16
Coordinates from ORCA-job pbe E -3188.214273352103
  Au      9.599729      9.182055      9.537204
  Au      7.692246      8.515253     11.468234
  Au      5.747225      6.480153     11.121559
  Au      7.298593     10.705539      9.837865
  Au      4.974698      6.169372      8.510832
  Au      5.456388     10.757082      7.721525
  Au      5.261331      8.735130      9.595998
  Au     10.593214      6.667650      9.705386
  Au      9.637412      7.401820      7.220302
  Au      8.434824      5.830830     11.203579
  Au      8.733157      4.853232      8.517004
  Au      7.895058      7.954523      5.158554
  Au      6.988182      5.798794      6.674104
  Au      7.986839      9.684956      7.295835
  Au      5.537204      8.183731      6.684272
  Mn      7.552919      7.224496      9.019847
16
Coordinates from ORCA-job pbe E -3188.214508836918
  Au      9.601110      9.180773      9.538079
  Au      7.696366      8.513870     11.475550
  Au      5.751358      6.477040     11.114404
  Au      7.297897     10.700357      9.840767
  Au      4.973451      6.169881      8.503199
  Au      5.454129     10.749132      7.728664
  Au      5.255098      8.733030      9.603592
  Au     10.597344      6.665501      9.698286
  Au      9.633341      7.388463      7.216516
  Au      8.434511      5.848120     11.203975
  Au      8.724604      4.852833      8.526015
  Au      7.899929      7.958436      5.154499
  Au      6.993635      5.803075      6.677520
  Au      7.987754      9.679498      7.297353
  Au      5.539667      8.182104      6.678027
  Mn      7.548824      7.242503      9.015655
16
Coordinates from ORCA-job pbe E -3188.214721521178
  Au      9.602771      9.178556      9.540428
  Au      7.697597      8.517688     11.483997
  Au      5.752005      6.477170     11.109658
  Au      7.298451     10.693885      9.843998
  Au      4.972538      6.173744      8.496136
  Au      5.450676     10.741640      7.735624
  Au      5.246827      8.731027      9.611497
  Au     10.599795      6.662886      9.692401
  Au      9.629951      7.374449      7.212382
  Au      8.440022      5.859170     11.209134
  Au      8.719938      4.852617      8.530731
  Au      7.903187      7.961353      5.147820
  Au      7.000682      5.804581      6.675866
  Au      7.989405      9.674089      7.299603
  Au      5.540801      8.180273      6.672578
  Mn      7.544371      7.261488      9.010250
16
Coordinates from ORCA-job pbe E -3188.214887027186
  Au      9.605180      9.173566      9.543147
  Au      7.697488      8.519894     11.491574
  Au      5.757706      6.479042     11.109222
  Au      7.298293     10.686610      9.846105
  Au      4.972682      6.175170      8.491200
  Au      5.446484     10.736305      7.740112
  Au      5.235537      8.730572      9.617907
  Au     10.601967      6.660174      9.687436
  Au      9.627141      7.361998      7.208683
  Au      8.445178      5.866913     11.208603
  Au      8.713600      4.855271      8.539169
  Au      7.906028      7.965235      5.143909
  Au      7.008379      5.806475      6.672548
  Au      7.992112      9.667784      7.301675
  Au      5.541998      8.178998      6.666389
  Mn      7.539243      7.280609      9.004421
16
Coordinates from ORCA-job pbe E -3188.215019551087
  Au      9.607877      9.169913      9.546006
  Au      7.698205      8.521106     11.500178
  Au      5.759788      6.478769     11.106003
  Au      7.295762     10.679693      9.846346
  Au      4.976571      6.178184      8.488418
  Au      5.444634     10.730330      7.743118
  Au      5.225600      8.729290      9.623196
  Au     10.607343      6.658007      9.683270
  Au      9.626362      7.350659      7.204255
  Au      8.450146      5.872363     11.207780
  Au      8.705442      4.860423      8.546756
  Au      7.908235      7.968423      5.139591
  Au      7.011097      5.805574      6.670901
  Au      7.994856      9.663498      7.304587
  Au      5.543074      8.177957      6.661821
  Mn      7.534028      7.300426      8.999878
16
Coordinates from ORCA-job pbe E -3188.215129673552
  Au      9.610902      9.165015      9.549962
  Au      7.699626      8.522426     11.506293
  Au      5.764882      6.478424     11.108433
  Au      7.293615     10.671125      9.844829
  Au      4.980577      6.176737      8.488574
  Au      5.442758     10.725623      7.743794
  Au      5.212599      8.727800      9.626961
  Au     10.613140      6.654804      9.680573
  Au      9.627450      7.340575      7.200228
  Au      8.452274      5.878621     11.204537
  Au      8.696702      4.867465      8.552581
  Au      7.910548      7.972717      5.138908
  Au      7.012679      5.806224      6.666792
  Au      7.999545      9.658872      7.307201
  Au      5.544498      8.177598      6.657749
  Mn      7.527223      7.320592      8.994686
16
Coordinates from ORCA-job pbe E -3188.215206660735
  Au      9.613767      9.160489      9.553603
  Au      7.700976      8.519290     11.513149
  Au      5.767603      6.481811     11.107556
  Au      7.289314     10.662574      9.843791
  Au      4.987308      6.176484      8.488647
  Au      5.442261     10.722130      7.742570
  Au      5.200070      8.726248      9.629952
  Au     10.622492      6.654309      9.677010
  Au      9.628936      7.332094      7.198083
  Au      8.456945      5.880926     11.198516
  Au      8.685619      4.876741      8.559398
  Au      7.912797      7.974890      5.140317
  Au      7.010255      5.803528      6.664228
  Au      8.004617      9.656057      7.309915
  Au      5.545275      8.176090      6.654779
  Mn      7.520780      7.340954      8.990588
16
Coordinates from ORCA-job pbe E -3188.215250209221
  Au      9.617761      9.156000      9.559545
  Au      7.705520      8.524803     11.517226
  Au      5.770718      6.478418     11.111675
  Au      7.286442     10.653494      9.839291
  Au      4.992384      6.170932      8.494187
  Au      5.442559     10.717385      7.741401
  Au      5.184361      8.723901      9.630873
  Au     10.628932      6.648783      9.677492
  Au      9.632873      7.322396      7.196766
  Au      8.457099      5.888622     11.195724
  Au      8.678651      4.886965      8.556665
  Au      7.915502      7.978212      5.141837
  Au      7.006744      5.804235      6.655499
  Au      8.012330      9.654587      7.311954
  Au      5.545401      8.175825      6.655846
  Mn      7.511739      7.360058      8.986120
16
Coordinates from ORCA-job pbe E -3188.215273199525
  Au      9.619393      9.152771      9.562866
  Au      7.705343      8.519573     11.521216
  Au      5.775412      6.487863     11.114139
  Au      7.282363     10.645773      9.839234
  Au      4.996579      6.168046      8.494313
  Au      5.443654     10.716017      7.738703
  Au      5.173309      8.723430      9.629808
  Au     10.638379      6.648705      9.675798
  Au      9.633670      7.319106      7.198296
  Au      8.461608      5.887826     11.188801
  Au      8.671003      4.893242      8.559735
  Au      7.917740      7.979298      5.145796
  Au      7.002209      5.800693      6.652356
  Au      8.017245      9.655028      7.312384
  Au      5.544850      8.174256      6.655762
  Mn      7.506261      7.372991      8.982893
16
Coordinates from ORCA-job pbe E -3188.215291544252
  Au      9.620109      9.151896      9.564248
  Au      7.707022      8.519904     11.522889
  Au      5.774754      6.488407     11.110382
  Au      7.281675     10.643340      9.840122
  Au      4.997957      6.164916      8.497389
  Au      5.445844     10.716981      7.737104
  Au      5.168491      8.722701      9.628204
  Au     10.642210      6.648716      9.675578
  Au      9.631809      7.318038      7.200918
  Au      8.463458      5.889005     11.185641
  Au      8.669326      4.896774      8.558842
  Au      7.918693      7.977850      5.148658
  Au      6.998729      5.799590      6.650431
  Au      8.020610      9.657320      7.311308
  Au      5.544454      8.172569      6.658115
  Mn      7.503876      7.376609      8.982271
16
Coordinates from ORCA-job pbe E -3188.215327770702
  Au      9.621067      9.149128      9.569443
  Au      7.707965      8.520108     11.526540
  Au      5.776604      6.495493     11.111526
  Au      7.278922     10.636484      9.840662
  Au      4.998346      6.154712      8.504481
  Au      5.454311     10.718637      7.732755
  Au      5.158135      8.720674      9.619377
  Au     10.649274      6.647506      9.677971
  Au      9.629419      7.319231      7.209422
  Au      8.466292      5.893051     11.181197
  Au      8.670924      4.903701      8.546078
  Au      7.919523      7.975068      5.154046
  Au      6.986639      5.794710      6.644167
  Au      8.029650      9.666071      7.307437
  Au      5.543446      8.169848      6.666901
  Mn      7.498502      7.380195      8.980100
16
Coordinates from ORCA-job pbe E -3188.215345698882
  Au      9.620599      9.147349      9.572752
  Au      7.709679      8.521936     11.528084
  Au      5.777799      6.499072     11.114237
  Au      7.278557     10.629882      9.840607
  Au      4.997490      6.145317      8.508380
  Au      5.461881     10.720999      7.729550
  Au      5.149763      8.718820      9.610105
  Au     10.659315      6.646007      9.680501
  Au      9.625129      7.322365      7.216819
  Au      8.467404      5.893967     11.170881
  Au      8.670594      4.905745      8.545947
  Au      7.917921      7.974080      5.157916
  Au      6.980967      5.794326      6.640874
  Au      8.035786      9.674547      7.303144
  Au      5.542708      8.168254      6.675022
  Mn      7.493427      7.381952      8.977285
16
Coordinates from ORCA-job pbe E -3188.215361861402
  Au      9.619472      9.144760      9.574137
  Au      7.710433      8.520442     11.532846
  Au      5.778003      6.500128     11.114531
  Au      7.277927     10.626351      9.840902
  Au      4.995307      6.141876      8.509285
  Au      5.466696     10.723237      7.726941
  Au      5.146790      8.718156      9.605759
  Au     10.662364      6.645771      9.680823
  Au      9.621951      7.324818      7.218923
  Au      8.467723      5.898505     11.168681
  Au      8.672485      4.908452      8.540605
  Au      7.915410      7.973081      5.160330
  Au      6.979059      5.788586      6.642313
  Au      8.039822      9.678790      7.301484
  Au      5.544501      8.167833      6.679136
  Mn      7.491075      7.383830      8.975406
16
Coordinates from ORCA-job pbe E -3188.215378142149
  Au      9.617720      9.141345      9.574690
  Au      7.711025      8.520896     11.537617
  Au      5.778148      6.501284     11.113882
  Au      7.276982     10.624579      9.841152
  Au      4.992622      6.140949      8.508259
  Au      5.469138     10.726316      7.724868
  Au      5.147142      8.717352      9.603317
  Au     10.664271      6.644732      9.681754
  Au      9.620199      7.328089      7.218957
  Au      8.466259      5.900668     11.167979
  Au      8.677179      4.907302      8.539361
  Au      7.908790      7.972630      5.160481
  Au      6.980264      5.784980      6.643815
  Au      8.042017      9.682073      7.300304
  Au      5.547436      8.167813      6.682063
  Mn      7.489829      7.383606      8.973602
16
Coordinates from ORCA-job pbe E -3188.215391034702
  Au      9.614935      9.135499      9.575580
  Au      7.712353      8.522433     11.542470
  Au      5.778531      6.503035     11.112644
  Au      7.275211     10.620621      9.841318
  Au      4.990407      6.140377      8.506685
  Au      5.470431     10.729677      7.722407
  Au      5.145470      8.717785      9.601152
  Au     10.667510      6.641853      9.682248
  Au      9.619114      7.331313      7.218574
  Au      8.465281      5.902324     11.164694
  Au      8.682133      4.907200      8.540624
  Au      7.901391      7.972339      5.160179
  Au      6.983570      5.781262      6.646987
  Au      8.045335      9.685780      7.299311
  Au      5.550535      8.167691      6.686513
  Mn      7.486811      7.385426      8.970718
16
Coordinates from ORCA-job pbe E -3188.215395914063
  Au      9.613473      9.132310      9.576055
  Au      7.713019      8.522869     11.544110
  Au      5.778559      6.504844     11.111857
  Au      7.273278     10.618731      9.840981
  Au      4.989422      6.139565      8.507191
  Au      5.470842     10.730670      7.720826
  Au      5.143712      8.718767      9.600674
  Au     10.669423      6.639666      9.682028
  Au      9.619868      7.332888      7.218099
  Au      8.465260      5.902681     11.163507
  Au      8.685336      4.907389      8.540955
  Au      7.899472      7.972043      5.160977
  Au      6.983791      5.780752      6.647528
  Au      8.047168      9.687429      7.298693
  Au      5.551577      8.167701      6.689131
  Mn      7.484817      7.386311      8.969489
16
Coordinates from ORCA-job pbe E -3188.215399908657
  Au      9.611983      9.128926      9.576756
  Au      7.713510      8.523025     11.544907
  Au      5.778601      6.507022     11.111798
  Au      7.271434     10.616351      9.840695
  Au      4.988716      6.138587      8.508524
  Au      5.471150     10.731264      7.718996
  Au      5.140295      8.720011      9.600680
  Au     10.671673      6.637349      9.680878
  Au      9.622066      7.334215      7.217879
  Au      8.465499      5.902851     11.161491
  Au      8.687897      4.909165      8.540205
  Au      7.899832      7.971154      5.162197
  Au      6.983338      5.780647      6.648757
  Au      8.049212      9.688831      7.298191
  Au      5.551901      8.167425      6.691945
  Mn      7.481912      7.387791      8.968201
16
Coordinates from ORCA-job pbe E -3188.215402586789
  Au      9.611067      9.127341      9.576955
  Au      7.713455      8.522504     11.544890
  Au      5.778026      6.508170     11.112048
  Au      7.270527     10.615591      9.840542
  Au      4.987623      6.138167      8.510248
  Au      5.471879     10.731236      7.717987
  Au      5.138405      8.720921      9.600971
  Au     10.673045      6.636444      9.679755
  Au      9.624372      7.335663      7.217781
  Au      8.465588      5.902952     11.160292
  Au      8.689729      4.910269      8.538807
  Au      7.901446      7.970043      5.163408
  Au      6.982204      5.780924      6.649727
  Au      8.049706      9.689318      7.297853
  Au      5.551791      8.167323      6.693141
  Mn      7.480156      7.387751      8.967695
