11
Coordinates from ORCA-job pbe E -2402.475949728642
  Au      9.660511      4.303681      9.108806
  Au     11.670200      5.187398      7.328752
  Au      9.214228      4.391159      6.178693
  Au     10.065248      7.182976      6.132037
  Au      6.615944      5.122538      6.287491
  Au      7.501163      8.026357      6.237193
  Au      7.154335      5.017872      9.820949
  Au      5.869325      6.971351      8.265494
  Au      8.039819      7.921761      9.773683
  Au     10.511878      7.095331      9.062746
  Cr      8.347459      6.209493      7.865357
11
Coordinates from ORCA-job pbe E -2402.477768768127
  Au      9.672854      4.304758      9.126197
  Au     11.652735      5.192479      7.331507
  Au      9.220732      4.393289      6.158823
  Au     10.069433      7.177311      6.113007
  Au      6.611525      5.115799      6.257027
  Au      7.500464      8.033011      6.206440
  Au      7.158829      5.008507      9.849946
  Au      5.840701      6.980614      8.270947
  Au      8.049060      7.927856      9.802514
  Au     10.521663      7.088236      9.080033
  Cr      8.352112      6.208057      7.864761
11
Coordinates from ORCA-job pbe E -2402.479236821089
  Au      9.679835      4.308174      9.154666
  Au     11.616334      5.203235      7.337290
  Au      9.218466      4.398153      6.130553
  Au     10.064859      7.174212      6.085681
  Au      6.614894      5.129534      6.219666
  Au      7.494720      8.017972      6.169266
  Au      7.172625      5.018126      9.883819
  Au      5.846725      6.979224      8.271160
  Au      8.055577      7.913099      9.837160
  Au     10.525800      7.082637      9.108268
  Cr      8.360273      6.205551      7.863672
11
Coordinates from ORCA-job pbe E -2402.480879132513
  Au      9.682977      4.310367      9.198680
  Au     11.572341      5.216556      7.344370
  Au      9.207554      4.402200      6.089166
  Au     10.053595      7.176293      6.045098
  Au      6.622993      5.163743      6.168934
  Au      7.481658      7.982515      6.119049
  Au      7.194989      5.046168      9.929510
  Au      5.873620      6.971688      8.268334
  Au      8.059167      7.878074      9.884670
  Au     10.527768      7.080828      9.151599
  Cr      8.373448      6.201485      7.861791
11
Coordinates from ORCA-job pbe E -2402.481754178261
  Au      9.686733      4.314102      9.232730
  Au     11.521804      5.232004      7.352487
  Au      9.200531      4.407330      6.057139
  Au     10.044919      7.175607      6.013489
  Au      6.629966      5.199518      6.127508
  Au      7.467536      7.946635      6.077886
  Au      7.214500      5.078229      9.967574
  Au      5.906394      6.962229      8.263453
  Au      8.058252      7.840420      9.924883
  Au     10.529529      7.077430      9.184840
  Cr      8.389945      6.196413      7.859212
11
Coordinates from ORCA-job pbe E -2402.482040795595
  Au      9.686015      4.309621      9.255887
  Au     11.497259      5.239512      7.356379
  Au      9.192592      4.404094      6.035525
  Au     10.040439      7.182275      5.991699
  Au      6.631123      5.215765      6.106030
  Au      7.459616      7.931263      6.056156
  Au      7.223428      5.096323      9.989255
  Au      5.926612      6.956366      8.258588
  Au      8.056202      7.819548      9.948219
  Au     10.532229      7.083234      9.206867
  Cr      8.404593      6.191916      7.856596
11
Coordinates from ORCA-job pbe E -2402.482391848241
  Au      9.684830      4.305387      9.273208
  Au     11.463561      5.249767      7.361382
  Au      9.186239      4.401124      6.019237
  Au     10.037197      7.187880      5.975113
  Au      6.630672      5.218944      6.095950
  Au      7.457943      7.928110      6.045325
  Au      7.227506      5.103461     10.001396
  Au      5.946267      6.950556      8.252003
  Au      8.056407      7.809609      9.961899
  Au     10.534596      7.089395      9.222762
  Cr      8.424893      6.185682      7.852929
11
Coordinates from ORCA-job pbe E -2402.483131734716
  Au      9.680569      4.294296      9.301379
  Au     11.419961      5.263073      7.367728
  Au      9.174097      4.392323      5.992508
  Au     10.032861      7.201310      5.947923
  Au      6.625499      5.208020      6.100791
  Au      7.460592      7.939340      6.048154
  Au      7.221987      5.098017     10.002026
  Au      5.974344      6.942231      8.241765
  Au      8.056629      7.813248      9.964745
  Au     10.539282      7.104486      9.248156
  Cr      8.464286      6.173572      7.846025
11
Coordinates from ORCA-job pbe E -2402.483764965336
  Au      9.680798      4.289705      9.329965
  Au     11.378349      5.275721      7.374873
  Au      9.166769      4.388040      5.963967
  Au     10.029828      7.208469      5.919638
  Au      6.621692      5.193765      6.121002
  Au      7.465756      7.952821      6.066396
  Au      7.210578      5.086100      9.984182
  Au      5.991028      6.937623      8.239282
  Au      8.055703      7.825224      9.949075
  Au     10.544431      7.111469      9.274025
  Cr      8.505176      6.160982      7.838796
11
Coordinates from ORCA-job pbe E -2402.484299149775
  Au      9.686266      4.292015      9.366647
  Au     11.343688      5.285834      7.380526
  Au      9.163491      4.389562      5.926889
  Au     10.026250      7.208638      5.883581
  Au      6.620286      5.180678      6.152442
  Au      7.471613      7.964257      6.096308
  Au      7.196887      5.073412      9.952814
  Au      5.993720      6.937642      8.242363
  Au      8.053171      7.839053      9.920083
  Au     10.550539      7.109903      9.307841
  Cr      8.544198      6.148923      7.831709
11
Coordinates from ORCA-job pbe E -2402.484804140800
  Au      9.698391      4.302321      9.406557
  Au     11.321685      5.291610      7.383722
  Au      9.165684      4.398847      5.885856
  Au     10.022020      7.199611      5.844590
  Au      6.623285      5.176655      6.190173
  Au      7.475245      7.966206      6.133452
  Au      7.184803      5.066942      9.913783
  Au      5.979344      6.943094      8.248825
  Au      8.047510      7.848032      9.882803
  Au     10.557723      7.097173      9.345296
  Cr      8.574419      6.139425      7.826145
11
Coordinates from ORCA-job pbe E -2402.485187322000
  Au      9.712614      4.318047      9.453641
  Au     11.297285      5.297699      7.387208
  Au      9.167168      4.415671      5.837734
  Au     10.013153      7.184970      5.799551
  Au      6.633725      5.181443      6.216967
  Au      7.479777      7.956663      6.159457
  Au      7.185281      5.068178      9.884967
  Au      5.953462      6.952081      8.254509
  Au      8.046233      7.845498      9.854328
  Au     10.563030      7.077906      9.390875
  Cr      8.598382      6.131760      7.821965
11
Coordinates from ORCA-job pbe E -2402.485249385640
  Au      9.718632      4.316220      9.478915
  Au     11.276581      5.303332      7.391056
  Au      9.164393      4.415915      5.811613
  Au     10.011225      7.185517      5.774401
  Au      6.635549      5.189191      6.219601
  Au      7.476959      7.949447      6.161287
  Au      7.186523      5.077051      9.882800
  Au      5.953644      6.952113      8.254104
  Au      8.042046      7.836511      9.852990
  Au     10.569136      7.078095      9.415273
  Cr      8.615423      6.126525      7.819162
11
Coordinates from ORCA-job pbe E -2402.485288906086
  Au      9.722451      4.317752      9.476763
  Au     11.286542      5.299984      7.389921
  Au      9.167720      4.418585      5.812351
  Au     10.012735      7.181111      5.775885
  Au      6.638125      5.191716      6.223444
  Au      7.477779      7.946600      6.165084
  Au      7.188807      5.079699      9.877958
  Au      5.937908      6.956704      8.257520
  Au      8.041063      7.834530      9.847177
  Au     10.570015      7.074087      9.414145
  Cr      8.606963      6.129148      7.820952
11
Coordinates from ORCA-job pbe E -2402.485298591918
  Au      9.722596      4.316510      9.477203
  Au     11.280825      5.301774      7.390698
  Au      9.167595      4.418811      5.811654
  Au     10.012802      7.180720      5.775367
  Au      6.639184      5.191839      6.222507
  Au      7.479165      7.945931      6.163974
  Au      7.191841      5.080040      9.879227
  Au      5.936629      6.957019      8.256168
  Au      8.042478      7.833228      9.848073
  Au     10.569997      7.074865      9.414908
  Cr      8.606997      6.129179      7.821421
11
Coordinates from ORCA-job pbe E -2402.485304940617
  Au      9.724201      4.314551      9.477806
  Au     11.276415      5.303089      7.392052
  Au      9.167325      4.418363      5.810104
  Au     10.013420      7.180852      5.773943
  Au      6.639423      5.190469      6.223356
  Au      7.480801      7.947048      6.164696
  Au      7.193126      5.080078      9.878638
  Au      5.935538      6.957148      8.255588
  Au      8.042349      7.833551      9.846919
  Au     10.571029      7.075365      9.416089
  Cr      8.606483      6.129404      7.822010
11
Coordinates from ORCA-job pbe E -2402.485308466216
  Au      9.725399      4.312650      9.479460
  Au     11.273211      5.304000      7.392190
  Au      9.167260      4.418281      5.807875
  Au     10.014120      7.180590      5.771708
  Au      6.639422      5.188936      6.225605
  Au      7.482368      7.948407      6.167055
  Au      7.194098      5.079062      9.876800
  Au      5.934671      6.957083      8.254720
  Au      8.042375      7.835356      9.844358
  Au     10.571463      7.075835      9.418497
  Cr      8.605722      6.129718      7.822934
11
Coordinates from ORCA-job pbe E -2402.485309647999
  Au      9.726124      4.312543      9.480403
  Au     11.272329      5.304325      7.392775
  Au      9.166651      4.418535      5.806529
  Au     10.013793      7.180614      5.770168
  Au      6.639687      5.188048      6.226295
  Au      7.483424      7.948933      6.168043
  Au      7.194215      5.078541      9.875694
  Au      5.935117      6.956714      8.255258
  Au      8.042168      7.836723      9.842813
  Au     10.571299      7.075065      9.419943
  Cr      8.605302      6.129876      7.823281
