13
E=  -1353.64163263;c=0;m=3
Au      8.943824073477090      5.227882483978900     11.272854824965339
Au      6.387184894763160      4.404616622313090      9.995226024356500
Au      7.818665882342330      3.336761849433330      7.700463912155980
Au     10.428080030484089      4.124187484932640      8.893260757271189
Au     10.440311019805470      6.648043404486290      7.747726925082510
Au      7.961971960521020      5.655677727402120      6.341268945497690
Au      8.546988885740870      8.187641034886390      5.894719770582490
Au      8.980135690854420      7.738718596661540     10.103381147487900
Au     10.033941180097781      9.384879967205460      8.115893435256851
Au      8.426452475191789     10.860301208638390      6.421124820596170
Au      6.245087137087440      6.938312497331700      9.098773594599241
Au      7.111321335321990      9.256881110348200      8.191698963429539
Cr      8.350967214312529      5.562028592381970      8.839017048718651
