19
E=  -2035.08917909;c=0;m=5
Au      4.239422231015280      5.077737016098400      7.641973231006770
Au      6.100009473077750      8.401819676371360     11.274184439382481
Au      3.406329815935690      7.622523409488950     11.336770697500819
Au      2.799633360006680      7.553170374655980      8.519208496612739
Au      2.913687136053620      5.135186982271100     10.129070323525990
Au      7.631492221361990      6.143756923037910     10.314619751309641
Au      5.342951121982160      5.501188248170320     11.659779077866320
Au      4.046146228546860      9.925063931116741      9.999242617077689
Au      4.780879183328150     12.084346191253720      8.412348162628470
Au      3.449520160838170      9.910028072579330      7.176334172945770
Au      6.238170084366080     10.286892179810160      6.832191490044530
Au      5.025281127134930      7.663877368057320      6.719998975798530
Au      9.257439363794710      7.123109082136460      8.271616634958290
Au      8.840019337699021      9.992724757981280      7.855518010961650
Au      8.718684985890320      8.833736147291200     10.471181673506869
Au      6.801587641471630     10.694631959440869      9.722058599644370
Au      7.711776133026780      8.067848433873110      6.079634120924810
Au      6.921312854227800      5.748124579872630      7.590273638864530
Fe      5.146329290242360      6.662005206493180      9.418703595439739
