17
E=  -1798.91206356;c=0;m=4
Au      4.287304655728940      5.653412896538330      6.979609128617510
Au      8.128288198309010     10.076449684063791      7.977629129000280
Au      9.793824418820670      9.074778336912750      5.960849521987980
Au      4.334704808309090      7.966425800464830      8.641714500197841
Au      5.969103749307010     10.031661872639210      9.863496474642959
Au      6.114743474088150      6.150763513081890      4.879874953578090
Au      7.080676716855300      8.804387767096969      5.395487118696140
Au      4.367939304591750      8.175376997744380      5.800864201930290
Au      5.447998145922240     10.323017821221450      7.129477641604030
Au      9.727427154572680      7.688833155745900      8.417843534011761
Au      5.887550309565260      7.495114553849230     11.048925857653590
Au      7.994540739450110      5.907229963535040      9.926272818005000
Au      8.728933046996010      6.499846313528640      5.805431571241530
Au      5.284867856448760      5.240684249901150      9.505085947726711
Au      9.660145818745340      4.914798888120360      7.905459679144530
Au      6.952028898726100      4.797469355539970      7.268460387664430
Mn      7.759830393563590      8.366051790016121      9.731854954297321
