15
E=  -1571.02398847;c=0;m=3
Au      7.239346307866430      6.557313964342330      7.973773056645810
Au      8.835197109004660      4.454342631180600      7.027931598754060
Au     11.036924119970600      9.271220061945870      8.407423591847371
Au     10.291204263307851      6.591752964805910      7.960122534468210
Au      6.423051728469470      9.184026582094139      8.603225996730959
Au      8.695776531791530     10.909646182253541      8.828825986209450
Au      8.760004475669939      8.179620716848760      9.760443927148801
Au     10.983935476410000      8.271687995114180      5.702303542034670
Au     10.082777759917230     10.950576052563891      6.300206858479090
Au      8.639638009925831      6.664817846758600      5.360911465103730
Au      4.670816233294240     10.270403954283889      6.745551592377760
Au      7.268160360466550     11.059610344152960      6.310243468886340
Au      6.317032295304550      8.203464747814680      5.805547570686450
Au      8.585906535516420      9.317531105803930      4.483922795845710
Cr      8.714382563084680      8.778400730036770      7.127242964781650
