15
Coordinates from ORCA-job pbe E -2945.838332046602
  Au      7.239346      6.557314      7.973773
  Au      8.835197      4.454343      7.027932
  Au     11.036924      9.271220      8.407424
  Au     10.291204      6.591753      7.960123
  Au      6.423052      9.184027      8.603226
  Au      8.695777     10.909646      8.828826
  Au      8.760004      8.179621      9.760444
  Au     10.983935      8.271688      5.702304
  Au     10.082778     10.950576      6.300207
  Au      8.639638      6.664818      5.360911
  Au      4.670816     10.270404      6.745552
  Au      7.268160     11.059610      6.310243
  Au      6.317032      8.203465      5.805548
  Au      8.585907      9.317531      4.483923
  Cr      8.714383      8.778401      7.127243
15
Coordinates from ORCA-job pbe E -2945.838672282211
  Au      7.241169      6.561815      7.967914
  Au      8.827266      4.533170      7.026753
  Au     11.043098      9.255536      8.405245
  Au     10.275757      6.616198      7.956103
  Au      6.421206      9.174419      8.598653
  Au      8.681023     10.912711      8.823660
  Au      8.747225      8.164983      9.772997
  Au     10.981840      8.256168      5.706022
  Au     10.069330     10.961862      6.300857
  Au      8.628827      6.666340      5.363697
  Au      4.743464     10.237360      6.753157
  Au      7.286158     11.036776      6.314692
  Au      6.320658      8.202547      5.813217
  Au      8.570039      9.311330      4.468247
  Cr      8.707093      8.773200      7.126463
15
Coordinates from ORCA-job pbe E -2945.839436719704
  Au      7.229689      6.556669      7.977946
  Au      8.834228      4.511798      7.028362
  Au     11.048673      9.254723      8.402800
  Au     10.293329      6.623602      7.965576
  Au      6.419715      9.169934      8.619194
  Au      8.679544     10.914390      8.822322
  Au      8.745129      8.162035      9.784052
  Au     10.983169      8.253937      5.707770
  Au     10.069783     10.967507      6.303643
  Au      8.627415      6.668874      5.342925
  Au      4.725538     10.251535      6.749407
  Au      7.300179     11.052277      6.308950
  Au      6.313706      8.193721      5.801535
  Au      8.568441      9.311352      4.456863
  Cr      8.705616      8.772061      7.126333
15
Coordinates from ORCA-job pbe E -2945.839651230818
  Au      7.225669      6.555588      7.981684
  Au      8.843858      4.517864      7.027775
  Au     11.041252      9.267656      8.404127
  Au     10.297199      6.614689      7.975175
  Au      6.419173      9.167211      8.629725
  Au      8.679425     10.903396      8.824959
  Au      8.744860      8.164132      9.786594
  Au     10.973413      8.257749      5.703861
  Au     10.079637     10.957026      6.302555
  Au      8.626673      6.670214      5.332010
  Au      4.734778     10.259054      6.752196
  Au      7.294453     11.059903      6.299074
  Au      6.311841      8.190316      5.797571
  Au      8.570935      9.310916      4.454624
  Cr      8.700987      8.768704      7.125746
15
Coordinates from ORCA-job pbe E -2945.839871242398
  Au      7.217796      6.559655      7.983572
  Au      8.843185      4.539824      7.019164
  Au     11.031140      9.275258      8.406734
  Au     10.303544      6.627569      7.991412
  Au      6.416444      9.159800      8.646198
  Au      8.673820     10.892468      8.823127
  Au      8.746238      8.164774      9.791598
  Au     10.961304      8.255783      5.703614
  Au     10.083977     10.945895      6.298937
  Au      8.621970      6.671882      5.314662
  Au      4.753739     10.251217      6.763079
  Au      7.311318     11.063978      6.285248
  Au      6.313630      8.180919      5.795341
  Au      8.573150      9.312609      4.450282
  Cr      8.692899      8.762785      7.124709
15
Coordinates from ORCA-job pbe E -2945.839981899230
  Au      7.213316      6.558510      7.985856
  Au      8.852074      4.559449      7.018067
  Au     11.028361      9.281167      8.409742
  Au     10.309436      6.637274      8.003189
  Au      6.412812      9.150462      8.662320
  Au      8.662486     10.890375      8.821129
  Au      8.744477      8.157617      9.800643
  Au     10.955268      8.245945      5.703186
  Au     10.089061     10.942242      6.296053
  Au      8.614812      6.673400      5.296775
  Au      4.776946     10.252667      6.767715
  Au      7.323754     11.067808      6.275953
  Au      6.311864      8.177706      5.793042
  Au      8.567300      9.314581      4.440618
  Cr      8.682186      8.755211      7.123388
15
Coordinates from ORCA-job pbe E -2945.840018937116
  Au      7.215598      6.555969      7.984896
  Au      8.857905      4.565947      7.014690
  Au     11.024469      9.284783      8.410484
  Au     10.311857      6.640191      8.006478
  Au      6.411909      9.146889      8.667831
  Au      8.657062     10.890568      8.816023
  Au      8.745162      8.157300      9.802073
  Au     10.953207      8.239551      5.707275
  Au     10.092449     10.936493      6.295157
  Au      8.612643      6.673492      5.292758
  Au      4.778719     10.256998      6.772570
  Au      7.328465     11.070789      6.272863
  Au      6.310290      8.179300      5.792773
  Au      8.567788      9.315291      4.439134
  Cr      8.676629      8.750854      7.122673
15
Coordinates from ORCA-job pbe E -2945.840040827306
  Au      7.219598      6.550259      7.982774
  Au      8.870786      4.561732      7.006374
  Au     11.013482      9.295446      8.413527
  Au     10.320724      6.644349      8.015027
  Au      6.409657      9.139261      8.673355
  Au      8.643065     10.895594      8.801984
  Au      8.747827      8.160456      9.802982
  Au     10.950131      8.225693      5.716729
  Au     10.097849     10.924433      6.292237
  Au      8.605587      6.675943      5.282454
  Au      4.791206     10.264639      6.785145
  Au      7.334740     11.076051      6.268749
  Au      6.307140      8.190215      5.796528
  Au      8.570300      9.318844      4.439039
  Cr      8.662062      8.741502      7.120773
15
Coordinates from ORCA-job pbe E -2945.840073529155
  Au      7.223657      6.549580      7.980935
  Au      8.869113      4.561963      7.008767
  Au     11.016428      9.290885      8.414012
  Au     10.318575      6.639361      8.011216
  Au      6.410507      9.138605      8.670209
  Au      8.646632     10.897610      8.805706
  Au      8.749669      8.161747      9.800354
  Au     10.954439      8.227061      5.715454
  Au     10.096379     10.926856      6.291358
  Au      8.605518      6.675070      5.289616
  Au      4.779779     10.267542      6.780761
  Au      7.329449     11.077435      6.269782
  Au      6.307012      8.190068      5.796579
  Au      8.572624      9.318390      4.441753
  Cr      8.664373      8.742242      7.121172
15
Coordinates from ORCA-job pbe E -2945.840077120087
  Au      7.223616      6.548685      7.981559
  Au      8.870444      4.559586      7.009911
  Au     11.017291      9.288688      8.412294
  Au     10.317630      6.637466      8.010211
  Au      6.410460      9.139757      8.667297
  Au      8.648921     10.897255      8.806505
  Au      8.749405      8.162936      9.799495
  Au     10.955095      8.229386      5.715059
  Au     10.093750     10.928504      6.292861
  Au      8.605887      6.674743      5.292084
  Au      4.778945     10.268732      6.780020
  Au      7.328050     11.076599      6.270410
  Au      6.305752      8.191082      5.795977
  Au      8.573486      9.317862      4.442685
  Cr      8.665421      8.743137      7.121309
15
Coordinates from ORCA-job pbe E -2945.840078512271
  Au      7.224144      6.548428      7.981805
  Au      8.870167      4.558443      7.009359
  Au     11.017945      9.287893      8.411283
  Au     10.317770      6.637031      8.010846
  Au      6.410670      9.139128      8.666003
  Au      8.649246     10.897291      8.806437
  Au      8.749586      8.163871      9.799014
  Au     10.955362      8.229995      5.715411
  Au     10.093025     10.929489      6.293701
  Au      8.605046      6.675049      5.293246
  Au      4.778953     10.269205      6.780315
  Au      7.326877     11.076820      6.269857
  Au      6.306002      8.191638      5.795906
  Au      8.574422      9.317317      4.443175
  Cr      8.664938      8.742817      7.121321
