11
E=  -1145.39674799;c=0;m=6
Au      7.372541522103110      5.879714647387260      6.125123665432750
Au      5.941992368533530      4.073059042589960      8.279461114703130
Au      8.890641585266341      6.975199252164370      8.188091385431569
Au      7.503944663417860      5.286232880747180     10.235128095610509
Au      7.279010081256840      8.145888341879170     10.253666937772239
Au      4.922756191900260      8.712529016997371      8.777580904415450
Au      8.848866700013650      4.103454838865680      7.915512001507730
Au      4.502940542743070      6.897739272848460      6.814786955919790
Au      4.982948936493300      4.486703118515650      5.615229356616180
Au      7.265904417141020      2.946517599613690      5.962337941260550
Mn      6.327859111133790      6.653070518401240      8.433624991327880
