15
E=  -1581.13905858;c=0;m=4
Au      7.051573579177170      7.703752816677520      9.765520738814169
Au      4.565015350627940      6.889797747945660      8.905327681082699
Au      9.714999781743220      8.625772208918839      9.505212207391439
Au      9.168928615189429      5.887363281868700      9.056192024880589
Au      9.252201294916350      5.417752826610090      6.229286167972060
Au      6.738630181594890      5.648377096673240      7.578801305414100
Au      4.825419935810150      7.262476722416710      6.123277722473640
Au      6.698621274320680     11.467104479368009      6.811117317822960
Au      6.782722588201650      9.154396587030149      5.325706725242200
Au      9.434199147969469      8.027856517370410      4.935798975364570
Au      9.214092154239930     10.005670885072000      6.894563446020780
Au      7.061458410233010      6.418246123466260      4.754548690801280
Au      7.658282382234660     10.481207689090390      9.263697894314991
Au      5.391710866193460      9.343356564472510      7.963952594064910
Mn      9.537957317548081      7.587334203019640      7.323387848339660
