11
E=  -1164.60220209;c=0;m=5
Au     10.962528182427270     10.168240385437230      8.117155133016411
Au      8.349101792997400      9.304546193550101      8.144556016481380
Au     10.388117976942800      7.876137636235460      9.529136584211100
Au      6.291631453052520      7.635337703041490      7.951190327233090
Au      9.375001092229940      5.475228511729280     10.045111660477490
Au      8.143934805876750      3.415184044709340      5.300933466484000
Au     10.490964010457340      7.977693562353470      6.551726928718450
Au      9.554811130376970      5.735060052037390      5.616647948204460
Au      6.733725151220200      5.434412343487250      6.530357327900880
Au      8.772623675966630      4.005868844004250      7.915173921737840
Fe      8.614996208452210      6.662733483414750      7.957649835534910
