11
Coordinates from ORCA-job pbe E -2621.734048908066
  Au     10.962528     10.168240      8.117155
  Au      8.349102      9.304546      8.144556
  Au     10.388118      7.876138      9.529137
  Au      6.291631      7.635338      7.951190
  Au      9.375001      5.475229     10.045112
  Au      8.143935      3.415184      5.300933
  Au     10.490964      7.977694      6.551727
  Au      9.554811      5.735060      5.616648
  Au      6.733725      5.434412      6.530357
  Au      8.772624      4.005869      7.915174
  Fe      8.614996      6.662733      7.957650
11
Coordinates from ORCA-job pbe E -2621.735768108113
  Au     10.983793     10.184563      8.101155
  Au      8.348141      9.312163      8.183952
  Au     10.366182      7.898017      9.554538
  Au      6.275493      7.651553      7.927622
  Au      9.403804      5.459459     10.050880
  Au      8.153442      3.403376      5.275249
  Au     10.500199      7.974036      6.534208
  Au      9.569023      5.742090      5.604217
  Au      6.718617      5.408011      6.554169
  Au      8.736376      3.993368      7.925726
  Fe      8.622365      6.663806      7.947923
11
Coordinates from ORCA-job pbe E -2621.737019387163
  Au     10.970239     10.170300      8.104705
  Au      8.355829      9.311158      8.236395
  Au     10.328846      7.928544      9.576619
  Au      6.264571      7.680704      7.869275
  Au      9.466169      5.436980     10.040977
  Au      8.151246      3.415591      5.290785
  Au     10.523691      8.000377      6.526066
  Au      9.573433      5.719205      5.577067
  Au      6.711611      5.372295      6.590849
  Au      8.683968      3.987867      7.932529
  Fe      8.647833      6.667424      7.914372
11
Coordinates from ORCA-job pbe E -2621.737741216642
  Au     10.965576     10.155967      8.097550
  Au      8.339686      9.305999      8.254083
  Au     10.313132      7.923886      9.594470
  Au      6.272859      7.690802      7.837856
  Au      9.495092      5.433331     10.024249
  Au      8.158522      3.430781      5.293372
  Au     10.517350      7.980642      6.514748
  Au      9.584183      5.738379      5.582787
  Au      6.698128      5.372918      6.612443
  Au      8.670460      3.988358      7.952870
  Fe      8.662447      6.669379      7.895211
11
Coordinates from ORCA-job pbe E -2621.737904455432
  Au     10.965294     10.163148      8.106779
  Au      8.327382      9.313831      8.249653
  Au     10.321786      7.916969      9.604074
  Au      6.276279      7.690965      7.833313
  Au      9.497489      5.434013     10.019773
  Au      8.151326      3.422704      5.294681
  Au     10.521105      7.990253      6.519096
  Au      9.579698      5.728163      5.578981
  Au      6.685127      5.379058      6.609081
  Au      8.679448      3.980598      7.962493
  Fe      8.672502      6.670740      7.881716
11
Coordinates from ORCA-job pbe E -2621.738027708432
  Au     10.962286     10.152519      8.100694
  Au      8.330674      9.321549      8.250005
  Au     10.326600      7.922876      9.605388
  Au      6.273371      7.690969      7.836891
  Au      9.493919      5.433626     10.023729
  Au      8.157170      3.433794      5.297628
  Au     10.515383      7.984710      6.522365
  Au      9.577769      5.732809      5.586013
  Au      6.682609      5.372328      6.605042
  Au      8.679554      3.973772      7.957822
  Fe      8.678100      6.671490      7.874062
11
Coordinates from ORCA-job pbe E -2621.738091017991
  Au     10.962632     10.155240      8.103307
  Au      8.332353      9.318568      8.253136
  Au     10.321970      7.923892      9.604229
  Au      6.276672      7.688747      7.839821
  Au      9.489545      5.436237     10.022001
  Au      8.154780      3.429833      5.297771
  Au     10.518139      7.987109      6.521221
  Au      9.578755      5.731578      5.582664
  Au      6.684466      5.370729      6.609350
  Au      8.676477      3.976460      7.956956
  Fe      8.681646      6.672050      7.869183
11
Coordinates from ORCA-job pbe E -2621.738195136656
  Au     10.969382     10.158607      8.098975
  Au      8.334352      9.314457      8.257243
  Au     10.315066      7.925196      9.602047
  Au      6.284011      7.676621      7.861097
  Au      9.463507      5.445669     10.022618
  Au      8.158847      3.429884      5.292011
  Au     10.522750      7.989644      6.518753
  Au      9.579419      5.729133      5.577406
  Au      6.687087      5.367069      6.617321
  Au      8.673096      3.981132      7.954999
  Fe      8.689919      6.673030      7.857170
11
Coordinates from ORCA-job pbe E -2621.738260699529
  Au     10.969762     10.156488      8.099441
  Au      8.338172      9.314448      8.257347
  Au     10.312982      7.927242      9.598668
  Au      6.293618      7.661599      7.890604
  Au      9.429808      5.460353     10.024779
  Au      8.157274      3.423323      5.287525
  Au     10.528049      7.992924      6.515914
  Au      9.584506      5.730743      5.570054
  Au      6.686309      5.366068      6.619918
  Au      8.676507      3.982037      7.952804
  Fe      8.700448      6.675217      7.842586
11
Coordinates from ORCA-job pbe E -2621.738299329590
  Au     10.976068     10.160962      8.097655
  Au      8.334877      9.315836      8.254280
  Au     10.314633      7.924029      9.598938
  Au      6.302760      7.643931      7.925663
  Au      9.390193      5.474788     10.028143
  Au      8.162188      3.431773      5.289070
  Au     10.535307      7.991680      6.505994
  Au      9.588071      5.729505      5.562311
  Au      6.686875      5.360426      6.621734
  Au      8.676883      3.981817      7.947933
  Fe      8.709581      6.675695      7.827917
11
Coordinates from ORCA-job pbe E -2621.738341137091
  Au     10.975802     10.151879      8.087858
  Au      8.335244      9.317378      8.256807
  Au     10.314110      7.926871      9.600670
  Au      6.299898      7.640680      7.931219
  Au      9.384510      5.472868     10.030971
  Au      8.169220      3.438248      5.284437
  Au     10.536861      7.990684      6.503281
  Au      9.591736      5.731171      5.559850
  Au      6.683551      5.363140      6.622295
  Au      8.678013      3.981587      7.952841
  Fe      8.708491      6.675937      7.829410
11
Coordinates from ORCA-job pbe E -2621.738353525443
  Au     10.971311     10.147297      8.089035
  Au      8.333853      9.317412      8.256804
  Au     10.313529      7.925345      9.602355
  Au      6.298588      7.644109      7.929404
  Au      9.390198      5.473912     10.032806
  Au      8.167214      3.438517      5.286706
  Au     10.538858      7.991017      6.500282
  Au      9.596531      5.733178      5.557238
  Au      6.681854      5.363594      6.621716
  Au      8.677172      3.979749      7.953528
  Fe      8.708325      6.676314      7.829764
11
Coordinates from ORCA-job pbe E -2621.738357413832
  Au     10.969831     10.148048      8.091386
  Au      8.333358      9.317215      8.257249
  Au     10.313502      7.925889      9.602379
  Au      6.298766      7.641869      7.932087
  Au      9.387001      5.473099     10.032263
  Au      8.165963      3.439800      5.289794
  Au     10.541420      7.990229      6.496478
  Au      9.598897      5.732761      5.554401
  Au      6.681925      5.364281      6.621997
  Au      8.676829      3.980792      7.954579
  Fe      8.709943      6.676459      7.827025
11
Coordinates from ORCA-job pbe E -2621.738359025171
  Au     10.970560     10.147441      8.089200
  Au      8.332911      9.316415      8.257525
  Au     10.312585      7.925119      9.602382
  Au      6.298791      7.640287      7.936105
  Au      9.383590      5.474484     10.033428
  Au      8.167506      3.441321      5.288905
  Au     10.542556      7.990392      6.495552
  Au      9.600032      5.732484      5.553492
  Au      6.682214      5.364426      6.622805
  Au      8.676097      3.981481      7.954428
  Fe      8.710592      6.676593      7.825817
