13
E=  -1362.86535565;c=0;m=6
Au      9.207145302934380      6.972900587583920      6.121394313430800
Au      6.700770976719190      7.279371913615530      5.396366881678620
Au      4.014799861196390      7.745552918884790      5.264987832334130
Au      9.427825182752740      5.908784001690300      8.900468412361530
Au     11.584001670712940      6.820259575546990      7.455037868324160
Au      9.979057931498019      8.904538804659721      8.260987705343670
Au      8.268605380133170      8.054997043222070     10.381229041404920
Au      5.468353350557550      8.397375322974980      9.571439356303630
Au      6.736186464459450      5.742136125587150      9.383796683898881
Au      5.370785342396560      9.467993038470150      6.927622492599360
Au      7.548143473443750     10.155568665465159      8.441590614950799
Au      4.819482047319210      6.471875846930230      7.567328013333870
Mn      7.416472695876630      7.670861065369020      7.847243554035680
