11
E=  -1164.54289014;c=0;m=5
Au     10.062400986963050      2.840495619811700      7.271446886617720
Au     11.553512509024101      4.998672065091920      7.569785339085740
Au      8.650821298891140      4.885553485244400      8.555009423522950
Au     13.794861629520559      6.273960111250340      8.049463817275999
Au      9.347432787463671      4.835221803573990      5.445127951499540
Au      8.031647062935280      7.133462377596640      5.181428833481930
Au     11.750946539590039      7.903986134840490      7.564425182787690
Au      7.363835318734250      7.182038378056390      8.160293132768469
Au      9.519675832655251      9.154030605865620      7.044578419159940
Au      6.862582788909690      9.299431903944511      6.448996101643190
Fe      9.619745565312950      6.682031914724010      7.109650012156860
