11
Coordinates from ORCA-job pbe E -2621.736594332642
  Au     10.062401      2.840496      7.271447
  Au     11.553513      4.998672      7.569785
  Au      8.650821      4.885553      8.555009
  Au     13.794862      6.273960      8.049464
  Au      9.347433      4.835222      5.445128
  Au      8.031647      7.133462      5.181429
  Au     11.750947      7.903986      7.564425
  Au      7.363835      7.182038      8.160293
  Au      9.519676      9.154031      7.044578
  Au      6.862583      9.299432      6.448996
  Fe      9.619746      6.682032      7.109650
11
Coordinates from ORCA-job pbe E -2621.738169587146
  Au     10.068419      2.824893      7.275236
  Au     11.570333      4.980623      7.573848
  Au      8.643919      4.869252      8.569751
  Au     13.854867      6.244794      8.061722
  Au      9.348796      4.818456      5.428605
  Au      8.009142      7.137502      5.163845
  Au     11.773592      7.922321      7.569800
  Au      7.335479      7.184697      8.165412
  Au      9.488309      9.199055      7.037485
  Au      6.849027      9.319257      6.445989
  Fe      9.615579      6.688035      7.108512
11
Coordinates from ORCA-job pbe E -2621.738525581354
  Au     10.086006      2.840023      7.281111
  Au     11.584993      4.983471      7.577912
  Au      8.638977      4.861274      8.580712
  Au     13.791401      6.234827      8.043378
  Au      9.351033      4.810839      5.416719
  Au      8.004204      7.130082      5.155955
  Au     11.785010      7.925866      7.574223
  Au      7.325646      7.176243      8.168790
  Au      9.504098      9.223246      7.042180
  Au      6.866008      9.313629      6.449206
  Fe      9.620086      6.689386      7.110019
11
Coordinates from ORCA-job pbe E -2621.739377677065
  Au     10.058203      2.855590      7.275686
  Au     11.578310      4.971372      7.577046
  Au      8.624895      4.862956      8.588967
  Au     13.806550      6.266147      8.043443
  Au      9.342955      4.812619      5.403599
  Au      7.998524      7.112317      5.158095
  Au     11.774732      7.947444      7.572495
  Au      7.319762      7.157975      8.163736
  Au      9.539294      9.226916      7.051396
  Au      6.892741      9.290097      6.454846
  Fe      9.621497      6.685452      7.110896
11
Coordinates from ORCA-job pbe E -2621.739422151033
  Au     10.029827      2.853173      7.268001
  Au     11.586378      4.973545      7.577842
  Au      8.619640      4.865501      8.592962
  Au     13.813487      6.277436      8.047264
  Au      9.338834      4.814080      5.398503
  Au      7.997352      7.098946      5.158424
  Au     11.783111      7.956929      7.572547
  Au      7.319265      7.145089      8.163951
  Au      9.540037      9.238108      7.051383
  Au      6.903635      9.278748      6.457576
  Fe      9.625896      6.687329      7.111752
11
Coordinates from ORCA-job pbe E -2621.739479669910
  Au     10.040444      2.868431      7.269170
  Au     11.586148      4.968551      7.577181
  Au      8.618181      4.862273      8.592155
  Au     13.812319      6.270793      8.048855
  Au      9.336137      4.810525      5.399188
  Au      7.991188      7.095617      5.157859
  Au     11.785930      7.957615      7.572078
  Au      7.313767      7.142318      8.162331
  Au      9.543173      9.243052      7.052031
  Au      6.904355      9.282209      6.457661
  Fe      9.625819      6.687500      7.111695
11
Coordinates from ORCA-job pbe E -2621.739497115616
  Au     10.048696      2.860593      7.271580
  Au     11.589176      4.968493      7.577730
  Au      8.616278      4.860899      8.592061
  Au     13.811290      6.271082      8.047791
  Au      9.334692      4.809294      5.398650
  Au      7.986317      7.098675      5.159563
  Au     11.783418      7.958066      7.572068
  Au      7.309793      7.145283      8.158133
  Au      9.547499      9.241546      7.053336
  Au      6.904910      9.287145      6.457549
  Fe      9.625393      6.687809      7.111744
11
Coordinates from ORCA-job pbe E -2621.739512382770
  Au     10.047803      2.861149      7.271882
  Au     11.590147      4.969224      7.577620
  Au      8.614628      4.860794      8.589193
  Au     13.813299      6.273321      8.047585
  Au      9.332466      4.809243      5.400658
  Au      7.984714      7.097551      5.161551
  Au     11.785577      7.956741      7.573030
  Au      7.309012      7.143922      8.155321
  Au      9.546700      9.241236      7.053409
  Au      6.906799      9.287371      6.457919
  Fe      9.626317      6.688332      7.112038
11
Coordinates from ORCA-job pbe E -2621.739535968824
  Au     10.048289      2.864034      7.273114
  Au     11.596095      4.971561      7.577131
  Au      8.609334      4.860166      8.579702
  Au     13.820682      6.274782      8.048719
  Au      9.324583      4.808796      5.407461
  Au      7.977165      7.091324      5.167580
  Au     11.791130      7.954978      7.574889
  Au      7.304489      7.137524      8.146270
  Au      9.548544      9.241382      7.054620
  Au      6.907159      9.293639      6.457646
  Fe      9.629993      6.690698      7.113072
11
Coordinates from ORCA-job pbe E -2621.739547137036
  Au     10.056532      2.865590      7.275680
  Au     11.600763      4.972922      7.576206
  Au      8.603267      4.857616      8.571402
  Au     13.824915      6.276238      8.049587
  Au      9.316476      4.806396      5.413052
  Au      7.966562      7.089085      5.174550
  Au     11.793429      7.954265      7.575733
  Au      7.297624      7.135543      8.135391
  Au      9.550553      9.240598      7.055804
  Au      6.915519      9.298078      6.459036
  Fe      9.631822      6.692553      7.113762
11
Coordinates from ORCA-job pbe E -2621.739553302576
  Au     10.059694      2.863932      7.276611
  Au     11.600969      4.972905      7.575636
  Au      8.601450      4.856580      8.570012
  Au     13.825301      6.277081      8.049421
  Au      9.315053      4.805376      5.413785
  Au      7.965619      7.089205      5.174279
  Au     11.794088      7.953717      7.576096
  Au      7.296416      7.136035      8.135462
  Au      9.553162      9.240719      7.056581
  Au      6.913424      9.300698      6.458272
  Fe      9.632286      6.692637      7.114050
11
Coordinates from ORCA-job pbe E -2621.739555176699
  Au     10.060493      2.863937      7.277169
  Au     11.601161      4.973878      7.574789
  Au      8.600677      4.856198      8.569046
  Au     13.825498      6.274826      8.049625
  Au      9.314915      4.805128      5.414340
  Au      7.965962      7.088847      5.173811
  Au     11.793467      7.955096      7.575876
  Au      7.296321      7.136260      8.136428
  Au      9.553494      9.241266      7.056798
  Au      6.912887      9.300326      6.458081
  Fe      9.632586      6.693122      7.114242
11
Coordinates from ORCA-job pbe E -2621.739556540822
  Au     10.061932      2.863342      7.278145
  Au     11.600888      4.974662      7.573515
  Au      8.598929      4.855320      8.567224
  Au     13.825454      6.275031      8.049339
  Au      9.314092      4.804353      5.415430
  Au      7.965973      7.088525      5.173839
  Au     11.793561      7.955567      7.576102
  Au      7.295993      7.136462      8.136776
  Au      9.553844      9.241498      7.057204
  Au      6.913903      9.300731      6.458050
  Fe      9.632895      6.693393      7.114578
