15
E=  -1581.12846699;c=0;m=4
Au      9.470538807796681     10.303604252204090      6.943102713925600
Au      8.167281113139509      8.777686052485480      4.968764210615610
Au     10.530527609183400      7.662315046082850      6.253025246171130
Au      8.316353695022570      5.972788939348730      5.496699135845570
Au      5.907344221987090      7.390970076200110      5.697070438801770
Au      4.103907353092160      5.809367819036210      7.068336749084350
Au      6.648533345285180      9.892442517804360      7.125804592847440
Au      7.790040027183500      7.139257663906020      9.950666382964020
Au      9.504012994514760      5.803511446578860      8.155974026393260
Au      6.755984504313810      5.382699011373830      7.792697101298910
Au      5.007439149562000      6.563932798323590      9.649675272399589
Au      4.244778147308740      8.597850977103381      7.607528792493170
Au      5.834898464129140      9.218114577584419      9.859695557181549
Au      8.446276612490470     10.104011205919029      9.554149832794529
Mn      9.228941764991060      8.221588426049051      8.239648837183450
