15
E=  -1570.56855277;c=0;m=5
Au      4.416782104190730      8.946411343764821      8.258911538582600
Au      6.122180774146940     10.133990338953250     10.167985309572661
Au      8.836639591630700      9.464343308118149      9.706061933329639
Au      7.226910784564330      5.789944525566320      8.562301609143351
Au      6.611000188470630      7.394014739110370     10.637119710080700
Au      9.449798030646461      7.686941128805140      7.774091582019540
Au      6.824920317124780     10.886141120712789      7.528568145265170
Au      7.602034979995610      8.989431339788659      5.775436440777960
Au      5.402956053029350      7.075988203400730      6.590287912314700
Au      6.903363017947970      6.751170477353520      4.177316806124080
Au      9.624298207986159      7.153005398155230      4.986797112370830
Au      8.734145747428229      4.611682295848660      4.153805905631320
Au      6.659342424408690      4.595749525717630      6.060647586096770
Au      9.387211076531550      5.000254459678300      6.864882887384360
Cr      6.924971011897860      8.455357615026420      8.331925761306350
