13
E=  -1363.33141047;c=0;m=4
Au      7.923244178037250      9.581611262691640      5.547475395864000
Au      9.888318091275680      7.642951227985550      4.801382150294210
Au     10.596224741125130     10.365345811838550      5.561863294421930
Au     11.896956405702539      8.169796448141289      6.845574003161750
Au      9.789872981814540      6.431505330423270      7.390049228359250
Au      7.499524314931070      6.548697376244390      5.350348034588830
Au      9.710401123828269     10.444256133096051      9.771867912984851
Au      8.784899334041890      7.874101742974730      9.605669203886521
Au      7.155807159135840      6.165157278783150      8.283668828303510
Au      5.133560125765840      5.806426040981230      6.478125280618750
Au      5.829362428080980      8.404016735415411      6.974233231855270
Au      7.437627958510060     10.147472989109820      8.275928263001539
Mn      9.714507867750910      9.156091662314919      7.565487382659590
