11
E=  -1145.39572132;c=0;m=6
Au      4.244428370229690      5.237630977470740      5.596094620513080
Au      7.839322965194820      6.557141220354430      9.961220844841749
Au      8.351482919427740      6.323853375783710      7.296873145297300
Au      7.169249381686390      4.069263446833230      8.715946348613040
Au      6.674270429787700      6.669908897494480      5.164692844281310
Au      6.053519949745990      6.936001706684790     11.976193419010681
Au      5.178917462008460      7.661276844528330      9.436425836412971
Au      5.058491084201480      4.918445594759090     10.451030759947670
Au      4.343374972949810      3.949984407793510      8.008210364451889
Au      4.569807373176770      7.900254693076850      6.845951141951080
Mn      5.873861611591090      5.913041225220810      7.573105144678430
