13
E=  -1363.33569157;c=0;m=4
Au     11.941793098861471      8.583207465266391      7.796144127452620
Au      8.231439474495239     11.290714220941050      7.295126468687540
Au      5.841393284604280      8.704424133130130      5.066364175447340
Au      9.974266476885321      6.423743795242590      7.820116186680180
Au     10.451085842469681      7.746077238131020      5.395302502213270
Au      7.799766214107630      7.232820404187800      6.306012265043780
Au     10.737237718428471     10.562531527125550      6.122709693099460
Au      7.946712903429410      9.957147280193890      9.812328805943579
Au     10.178627274198959      8.202248047686130     10.127495134521510
Au      7.611535871326450      7.132223655073170      9.145805660817601
Au      6.250932304910320      9.232699914443200      7.726944749080440
Au      8.394515728634611      9.691875467103660      4.890525297643420
Mn      9.884803587648150      9.784199021475461      8.299904953369269
