17
E=  -1788.19881540;c=0;m=5
Au     10.355170542857261      9.778392326342310     11.842064371430601
Au     10.074916988418829      7.387773921090460     10.548721497728870
Au      9.578059931275151      5.845847724324840      8.344164150346110
Au      8.344628879778231      9.780160811343130     10.022610832482529
Au      6.793025752884210      5.121169574160860      7.698299998325380
Au      7.326699532092120      7.082231285341320      9.701908151497880
Au      5.181967812223060      7.270519467558880      6.690848474793600
Au      8.748618628923090      5.427705380748460      5.699564433989410
Au     12.103823582736830      7.121820659666970      8.633069034035209
Au     11.140699445179450      9.835982187965421      9.176428994088180
Au      6.393451494421260      9.338342242019809      8.171010446185029
Au      6.915892573231240      9.116412869536610      5.331788882647840
Au      9.037998680129039      9.867625286777169      7.221275935120820
Au      9.484431176959280      8.101009825824059      5.021117933098920
Au     11.435561527402820      6.359881889100530      6.005313913802410
Au     11.695675887515209      9.108443909555559      6.580070501106120
Cr      7.764782873972920      7.413319598643570      7.055079309321110
