13
E=  -1353.68272179;c=0;m=3
Au      6.551558686444440      6.968160103953710      6.474211243427520
Au      8.549112547083400      9.266159722914020      7.253496457893380
Au     11.185405101237279      4.793379890002290      6.998703618759240
Au     10.335608888084010      7.360994241334530      6.669820320365110
Au      8.312787723560460      4.956990532162910      6.583903893952760
Au     10.411448249599660      6.026688341715340      9.514615245590109
Au      9.471693458339731      3.387438731221500      8.739001932474910
Au      5.653259126044600      9.328610749189821      7.496426386263090
Au      6.262712497388240      7.390676268695660      9.575226886791761
Au      7.226022005975210     10.130726213304150      9.693138627010150
Au      7.445546004739420      4.990201566117370      9.604635977387669
Au      9.204038342263750      8.320341002097759     10.178537020891831
Cr      8.384009309239810      6.910066917290940      8.231865239192439
