13
Coordinates from ORCA-job pbe E -2674.148683730856
  Au      6.551559      6.968160      6.474211
  Au      8.549113      9.266160      7.253496
  Au     11.185405      4.793380      6.998704
  Au     10.335609      7.360994      6.669820
  Au      8.312788      4.956991      6.583904
  Au     10.411448      6.026688      9.514615
  Au      9.471693      3.387439      8.739002
  Au      5.653259      9.328611      7.496426
  Au      6.262712      7.390676      9.575227
  Au      7.226022     10.130726      9.693139
  Au      7.445546      4.990202      9.604636
  Au      9.204038      8.320341     10.178537
  Cr      8.384009      6.910067      8.231865
13
Coordinates from ORCA-job pbe E -2674.151286714788
  Au      6.533584      6.972963      6.460557
  Au      8.536446      9.281922      7.256686
  Au     11.157154      4.800582      7.015990
  Au     10.354212      7.360974      6.656779
  Au      8.325763      4.940912      6.583009
  Au     10.422388      6.009667      9.510895
  Au      9.472203      3.419367      8.726981
  Au      5.680316      9.315015      7.512835
  Au      6.252653      7.408008      9.576373
  Au      7.226711     10.103949      9.671619
  Au      7.440443      4.970825      9.614942
  Au      9.207266      8.335966     10.195087
  Cr      8.384062      6.910283      8.231828
13
Coordinates from ORCA-job pbe E -2674.152838562857
  Au      6.522664      6.949563      6.431680
  Au      8.538315      9.296034      7.249952
  Au     11.143173      4.811902      7.021708
  Au     10.366687      7.391261      6.637144
  Au      8.325083      4.929749      6.572190
  Au     10.435355      6.005235      9.519027
  Au      9.465771      3.437511      8.725261
  Au      5.693477      9.302385      7.516198
  Au      6.239822      7.409927      9.585518
  Au      7.233467     10.088583      9.664012
  Au      7.409851      4.965828      9.637643
  Au      9.235417      8.332155     10.221372
  Cr      8.384118      6.910301      8.231878
13
Coordinates from ORCA-job pbe E -2674.153961238585
  Au      6.519785      6.909820      6.398324
  Au      8.549393      9.301293      7.239570
  Au     11.108343      4.866999      7.026795
  Au     10.370724      7.439376      6.617110
  Au      8.315205      4.928497      6.559512
  Au     10.443349      6.012477      9.531103
  Au      9.426515      3.490240      8.734468
  Au      5.729280      9.246518      7.507340
  Au      6.232268      7.400172      9.595705
  Au      7.273358     10.035370      9.658175
  Au      7.365298      4.974822      9.664600
  Au      9.275715      8.314204     10.248898
  Cr      8.383968      6.910647      8.231984
13
Coordinates from ORCA-job pbe E -2674.154090764794
  Au      6.520165      6.897106      6.389364
  Au      8.552074      9.310261      7.233872
  Au     11.110687      4.870960      7.024300
  Au     10.371003      7.452519      6.612066
  Au      8.313844      4.921679      6.551721
  Au     10.451697      6.010567      9.536924
  Au      9.422265      3.489819      8.737728
  Au      5.725956      9.244227      7.502697
  Au      6.223756      7.400278      9.602565
  Au      7.277251     10.036662      9.662837
  Au      7.352783      4.978482      9.671340
  Au      9.287676      8.307337     10.256202
  Cr      8.384044      6.910538      8.231967
13
Coordinates from ORCA-job pbe E -2674.154127324395
  Au      6.522439      6.895267      6.390944
  Au      8.550450      9.313545      7.233497
  Au     11.109201      4.871995      7.025231
  Au     10.368140      7.454717      6.613289
  Au      8.314861      4.918965      6.549841
  Au     10.454529      6.008809      9.537744
  Au      9.421606      3.492226      8.737070
  Au      5.729735      9.241765      7.504302
  Au      6.221277      7.403122      9.603927
  Au      7.277997     10.032926      9.659976
  Au      7.351228      4.981967      9.670666
  Au      9.287893      8.304361     10.254956
  Cr      8.383844      6.910768      8.232139
13
Coordinates from ORCA-job pbe E -2674.154151112689
  Au      6.526972      6.891627      6.394359
  Au      8.549056      9.320257      7.231022
  Au     11.105636      4.876372      7.026797
  Au     10.363043      7.454400      6.616914
  Au      8.319128      4.912532      6.546983
  Au     10.460421      6.003495      9.537790
  Au      9.418176      3.498822      8.736777
  Au      5.730199      9.238675      7.502251
  Au      6.215711      7.406772      9.607941
  Au      7.281554     10.031318      9.661070
  Au      7.351753      4.987208      9.667071
  Au      9.287549      8.298598     10.252305
  Cr      8.384004      6.910358      8.232304
13
Coordinates from ORCA-job pbe E -2674.154154955623
  Au      6.527402      6.892494      6.396141
  Au      8.547780      9.321482      7.231133
  Au     11.110134      4.875544      7.023956
  Au     10.361955      7.455367      6.617325
  Au      8.318108      4.912307      6.544993
  Au     10.461788      6.004439      9.539360
  Au      9.417553      3.494536      8.738777
  Au      5.731334      9.237449      7.502646
  Au      6.214980      7.408727      9.608281
  Au      7.282177     10.030102      9.660168
  Au      7.350544      4.988731      9.666837
  Au      9.285870      8.298316     10.251468
  Cr      8.383578      6.910941      8.232499
13
Coordinates from ORCA-job pbe E -2674.154158609174
  Au      6.527143      6.891980      6.395537
  Au      8.548783      9.320123      7.230868
  Au     11.108989      4.874673      7.025035
  Au     10.362369      7.454900      6.617199
  Au      8.318231      4.913361      6.545744
  Au     10.460849      6.004899      9.538664
  Au      9.418588      3.495659      8.737743
  Au      5.730232      9.238830      7.502838
  Au      6.215874      7.407398      9.608187
  Au      7.281218     10.031694      9.660310
  Au      7.350736      4.988119      9.666811
  Au      9.286451      8.298091     10.252152
  Cr      8.383740      6.910709      8.232493
13
Coordinates from ORCA-job pbe E -2674.154158910999
  Au      6.526965      6.891918      6.395766
  Au      8.548713      9.320054      7.230632
  Au     11.109181      4.874686      7.025001
  Au     10.362362      7.454501      6.617299
  Au      8.318612      4.913463      6.545557
  Au     10.461058      6.004981      9.538437
  Au      9.418373      3.496036      8.737846
  Au      5.730061      9.238759      7.502775
  Au      6.215891      7.407533      9.608422
  Au      7.281659     10.031829      9.660405
  Au      7.350668      4.988010      9.666505
  Au      9.285959      8.297974     10.252400
  Cr      8.383698      6.910689      8.232537
