17
E=  -1817.57730529;c=0;m=5
Au      8.839752692106570      6.759339324533870      6.838275016666010
Au      9.517621433370570      9.290172581954460      8.161414475063390
Au      7.217712194117580      6.939187179549670      4.542395379862200
Au      7.021787179677840      4.696810794696900      6.224769634031090
Au      4.604126750990250      6.039114599054860      5.284323268627090
Au      5.127519557962680      8.778310222406359      5.228268931237860
Au      7.792386470547670      9.330810356498970      5.971566817732200
Au      4.650126146587180      4.697426934522150      7.753270529732440
Au      5.645616673453740     10.164132849672720      7.597346480028490
Au      9.374906398527949      6.854760964827900      9.589438359770430
Au      7.402685192282550     10.209897068648200      9.890975880552061
Au      4.585855326309680      6.198346732310810     10.090395937670181
Au      4.833160476225770      8.981206533220769      9.991048821611200
Au      7.016581910636570      7.429742532963830     11.000799001380530
Au      7.112714551666590      5.366524018004570      8.947281844953700
Au      4.217228457106080      7.582645201022550      7.623470158966060
Fe      7.189449628430760      8.116954096111449      8.463667822115100
