13
E=  -1381.99672054;c=0;m=5
Au      8.478683465868500      8.999045909110880      7.164748635313840
Au      6.663279112077600      9.592399836379640      2.669162858784030
Au      8.119801577780740      7.843661573227620      4.289578502047000
Au      6.859560653071120     10.273639643930951      5.436723263060710
Au      4.461291905116320      9.101846493197719      6.619266939127120
Au      4.402408223847840     10.451719558459320      4.178853772081780
Au      5.113299928334030      7.694797518013640      4.006103727720700
Au      8.218913739063220      5.674136570797040      5.971762643749020
Au      6.379235840407690      4.568366788152230      7.917917734629670
Au      5.175733086547040      5.586833450651280      5.635903915117100
Au      4.941938508118590      7.032679692219670      8.303803863436620
Au      7.837455067138820      6.831699425440610      8.658959884290370
Fe      6.561138452628510      7.570441580419420      6.389598390642040
