17
E=  -1798.97463964;c=0;m=4
Au      7.817378866063790      5.894753192586320      9.859296714288879
Au      5.081092413975830      5.346987280983890      9.617955175833520
Au      9.527386790140500      4.836661386541180      7.878130194052340
Au      6.775792211924520      4.817210179277020      7.329453920660190
Au      6.019373209651570      6.191891514561160      4.956343217374040
Au      4.140799713696440      5.785954141020390      7.030745178004600
Au      5.762224140646620     10.004196981431599      9.885293830173490
Au      3.986906121772510      8.132408485427380      8.634175880337660
Au      9.588448653815890      7.613213723501190      8.423610089092399
Au      7.971866532275990      9.998473625732510      8.081130116708151
Au      9.690427422172659      9.141680618538910      6.069909037845700
Au      8.121900615127579      8.625777478323981     10.625868962481119
Au      8.605145977828689      6.553026568320030      5.875065481532350
Au      6.988546271141390      8.835145888982129      5.483737566610860
Au      4.251993748607610      8.272004404766550      5.745273893379530
Au      5.341698187294260     10.393735486496800      7.135595187133320
Mn      5.954834723864210      7.577662413509120     10.032410314491811
