17
Coordinates from ORCA-job pbe E -3323.989830755961
  Au      7.817379      5.894753      9.859297
  Au      5.081092      5.346987      9.617955
  Au      9.527387      4.836661      7.878130
  Au      6.775792      4.817210      7.329454
  Au      6.019373      6.191892      4.956343
  Au      4.140800      5.785954      7.030745
  Au      5.762224     10.004197      9.885294
  Au      3.986906      8.132408      8.634176
  Au      9.588449      7.613214      8.423610
  Au      7.971867      9.998474      8.081130
  Au      9.690427      9.141681      6.069909
  Au      8.121901      8.625777     10.625869
  Au      8.605146      6.553027      5.875065
  Au      6.988546      8.835146      5.483738
  Au      4.251994      8.272004      5.745274
  Au      5.341698     10.393735      7.135595
  Mn      5.954835      7.577662     10.032410
17
Coordinates from ORCA-job pbe E -3323.996211578577
  Au      7.835041      5.887460      9.847462
  Au      5.064888      5.314387      9.608599
  Au      9.527212      4.848857      7.870386
  Au      6.781345      4.832640      7.325642
  Au      6.025745      6.202599      4.980655
  Au      4.147864      5.799539      7.027806
  Au      5.766899     10.033093      9.876464
  Au      3.976461      8.137609      8.611549
  Au      9.579335      7.610933      8.417781
  Au      7.965541      9.984549      8.076531
  Au      9.669231      9.125520      6.088914
  Au      8.146490      8.639803     10.614533
  Au      8.593620      6.557694      5.894158
  Au      6.982857      8.824024      5.505032
  Au      4.264338      8.269920      5.754098
  Au      5.345868     10.380472      7.132724
  Mn      5.953081      7.571685     10.031663
17
Coordinates from ORCA-job pbe E -3324.000698517582
  Au      7.854611      5.872494      9.842009
  Au      5.042361      5.259958      9.603724
  Au      9.546401      4.844006      7.865873
  Au      6.786224      4.837726      7.325521
  Au      6.024901      6.206978      4.992432
  Au      4.144016      5.807484      7.028605
  Au      5.770734     10.076674      9.873433
  Au      3.952928      8.150307      8.589746
  Au      9.582317      7.607003      8.417694
  Au      7.959037      9.980605      8.075523
  Au      9.668770      9.119581      6.098736
  Au      8.175666      8.663691     10.608678
  Au      8.594222      6.554451      5.906668
  Au      6.975847      8.822014      5.515692
  Au      4.259146      8.275219      5.752760
  Au      5.341975     10.382249      7.131312
  Mn      5.946659      7.560342     10.035588
17
Coordinates from ORCA-job pbe E -3324.003301213539
  Au      7.861967      5.868465      9.828367
  Au      5.041011      5.223337      9.592951
  Au      9.554626      4.848732      7.860623
  Au      6.791740      4.857127      7.331868
  Au      6.027481      6.215399      5.012352
  Au      4.156171      5.825791      7.039174
  Au      5.777446     10.094961      9.861672
  Au      3.946442      8.165427      8.570610
  Au      9.569401      7.600620      8.415710
  Au      7.945261      9.961805      8.073081
  Au      9.658769      9.108464      6.110605
  Au      8.186441      8.677664     10.589071
  Au      8.588701      6.554639      5.924302
  Au      6.970632      8.816477      5.532040
  Au      4.263516      8.279922      5.756004
  Au      5.344874     10.372975      7.133766
  Mn      5.941336      7.548979     10.031800
17
Coordinates from ORCA-job pbe E -3324.005192127318
  Au      7.869217      5.862765      9.821250
  Au      5.037958      5.179716      9.594821
  Au      9.579627      4.840363      7.854388
  Au      6.799053      4.871697      7.340486
  Au      6.027036      6.219209      5.018825
  Au      4.161392      5.845047      7.053295
  Au      5.778500     10.113974      9.862272
  Au      3.934351      8.188770      8.557468
  Au      9.564575      7.592387      8.416183
  Au      7.933758      9.945312      8.070470
  Au      9.662942      9.103362      6.111507
  Au      8.191888      8.693219     10.579392
  Au      8.592261      6.550414      5.932224
  Au      6.967759      8.816030      5.535861
  Au      4.256075      8.288624      5.745356
  Au      5.339833     10.374969      7.133979
  Mn      5.929590      7.534927     10.036217
17
Coordinates from ORCA-job pbe E -3324.006763547025
  Au      7.870543      5.861397      9.812411
  Au      5.046147      5.146299      9.596911
  Au      9.598151      4.836837      7.848049
  Au      6.806152      4.892020      7.352443
  Au      6.027505      6.224015      5.025996
  Au      4.174810      5.869241      7.073595
  Au      5.778188     10.117824      9.860571
  Au      3.931471      8.214733      8.549036
  Au      9.554545      7.583839      8.415458
  Au      7.920923      9.922777      8.064815
  Au      9.664298      9.097622      6.109366
  Au      8.185231      8.700664     10.571152
  Au      8.593295      6.548303      5.938298
  Au      6.967180      8.814526      5.538541
  Au      4.253014      8.296260      5.733710
  Au      5.337938     10.373807      7.133913
  Mn      5.916425      7.520621     10.039728
17
Coordinates from ORCA-job pbe E -3324.008210970831
  Au      7.870087      5.860785      9.808586
  Au      5.056534      5.114491      9.607840
  Au      9.618268      4.832503      7.841610
  Au      6.813618      4.910357      7.364134
  Au      6.026922      6.227491      5.027806
  Au      4.188266      5.895796      7.095966
  Au      5.775114     10.114194      9.861082
  Au      3.930835      8.244012      8.544962
  Au      9.546565      7.577483      8.414927
  Au      7.910153      9.899706      8.057524
  Au      9.669212      9.094009      6.103420
  Au      8.172011      8.703098     10.566523
  Au      8.596560      6.546228      5.938620
  Au      6.968093      8.814810      5.536017
  Au      4.248159      8.304914      5.718464
  Au      5.335342     10.375759      7.131306
  Mn      5.900078      7.505147     10.045209
17
Coordinates from ORCA-job pbe E -3324.009546047675
  Au      7.868557      5.861433      9.808240
  Au      5.070632      5.085332      9.620490
  Au      9.633816      4.832376      7.835428
  Au      6.820372      4.928465      7.375515
  Au      6.025894      6.229721      5.029079
  Au      4.205312      5.923696      7.121367
  Au      5.770381     10.103374      9.861030
  Au      3.932683      8.274752      8.544270
  Au      9.539407      7.572316      8.414327
  Au      7.901267      9.877296      8.049009
  Au      9.675732      9.090814      6.094751
  Au      8.153178      8.699337     10.564536
  Au      8.599266      6.544464      5.935749
  Au      6.970042      8.815380      5.530524
  Au      4.243905      8.312739      5.703585
  Au      5.333889     10.380570      7.126393
  Mn      5.881482      7.488719     10.049700
17
Coordinates from ORCA-job pbe E -3324.010732153695
  Au      7.868192      5.862292      9.813271
  Au      5.084479      5.054507      9.635920
  Au      9.647656      4.834726      7.829380
  Au      6.826699      4.943753      7.385416
  Au      6.023887      6.231299      5.029386
  Au      4.222556      5.952142      7.148066
  Au      5.765819     10.089882      9.859425
  Au      3.933713      8.306002      8.545134
  Au      9.533984      7.570161      8.413695
  Au      7.894408      9.856404      8.039307
  Au      9.681760      9.087732      6.086274
  Au      8.132330      8.691378     10.563296
  Au      8.601820      6.544082      5.929891
  Au      6.972560      8.816689      5.524015
  Au      4.240420      8.320322      5.690172
  Au      5.334748     10.388321      7.118569
  Mn      5.860783      7.471090     10.052777
17
Coordinates from ORCA-job pbe E -3324.011782231348
  Au      7.870002      5.863514      9.819698
  Au      5.098423      5.021599      9.647915
  Au      9.656664      4.840767      7.823489
  Au      6.833048      4.957723      7.394255
  Au      6.021200      6.231154      5.031990
  Au      4.241213      5.979501      7.175890
  Au      5.762496     10.078034      9.857644
  Au      3.931704      8.336859      8.545723
  Au      9.530267      7.568367      8.413798
  Au      7.889561      9.839346      8.030561
  Au      9.688963      9.084387      6.077901
  Au      8.111845      8.680907     10.563594
  Au      8.602947      6.543009      5.923577
  Au      6.974359      8.817471      5.517076
  Au      4.237528      8.325752      5.679967
  Au      5.336356     10.399590      7.108652
  Mn      5.839239      7.452803     10.052265
17
Coordinates from ORCA-job pbe E -3324.012746565477
  Au      7.872940      5.864114      9.829523
  Au      5.111255      4.985504      9.659222
  Au      9.665722      4.846950      7.818569
  Au      6.839222      4.968057      7.402284
  Au      6.017486      6.230821      5.035031
  Au      4.258871      6.005452      7.204350
  Au      5.762646     10.068316      9.852595
  Au      3.925778      8.367727      8.545319
  Au      9.527654      7.569805      8.413907
  Au      7.885486      9.824499      8.021933
  Au      9.693232      9.080704      6.072100
  Au      8.092178      8.668909     10.562017
  Au      8.603759      6.543963      5.916083
  Au      6.975964      8.818833      5.512178
  Au      4.235964      8.330986      5.673948
  Au      5.340922     10.412135      7.097961
  Mn      5.816737      7.434009     10.046975
17
Coordinates from ORCA-job pbe E -3324.013667777355
  Au      7.877145      5.865059      9.837492
  Au      5.125252      4.948670      9.665930
  Au      9.669716      4.855919      7.813929
  Au      6.846619      4.977111      7.409724
  Au      6.013884      6.228565      5.041203
  Au      4.277647      6.028508      7.233076
  Au      5.764660     10.062593      9.848502
  Au      3.914749      8.398579      8.543890
  Au      9.526381      7.569753      8.414687
  Au      7.883547      9.814576      8.015588
  Au      9.699074      9.076657      6.066582
  Au      8.073929      8.655306     10.561760
  Au      8.603252      6.543137      5.909762
  Au      6.976307      8.819215      5.507388
  Au      4.235012      8.333872      5.672266
  Au      5.344560     10.427420      7.086807
  Mn      5.794082      7.415842     10.035409
17
Coordinates from ORCA-job pbe E -3324.014575399226
  Au      7.880979      5.865055      9.847816
  Au      5.139347      4.911106      9.672289
  Au      9.675314      4.862572      7.810603
  Au      6.853535      4.981573      7.416359
  Au      6.009349      6.226818      5.047923
  Au      4.294929      6.049439      7.262279
  Au      5.769948     10.059110      9.840467
  Au      3.899183      8.429104      8.541081
  Au      9.525975      7.572868      8.415108
  Au      7.882119      9.807438      8.009646
  Au      9.701291      9.072776      6.063817
  Au      8.056519      8.640552     10.559114
  Au      8.602789      6.544535      5.902455
  Au      6.976493      8.820308      5.505594
  Au      4.236194      8.336876      5.676176
  Au      5.351051     10.442017      7.076583
  Mn      5.770801      7.398633     10.016684
17
Coordinates from ORCA-job pbe E -3324.015477077657
  Au      7.884769      5.865384      9.854249
  Au      5.155964      4.875412      9.676090
  Au      9.677126      4.870443      7.807465
  Au      6.862195      4.983927      7.422075
  Au      6.005444      6.223824      5.056982
  Au      4.312220      6.066869      7.291818
  Au      5.775687     10.058708      9.833087
  Au      3.878149      8.459415      8.538258
  Au      9.525949      7.573937      8.415393
  Au      7.882951      9.804906      8.006066
  Au      9.704659      9.068296      6.062030
  Au      8.040200      8.624879     10.556954
  Au      8.601859      6.544227      5.896961
  Au      6.976385      8.820618      5.504330
  Au      4.237997      8.338388      5.684177
  Au      5.356701     10.457966      7.067384
  Mn      5.747561      7.383584      9.990676
17
Coordinates from ORCA-job pbe E -3324.016365985829
  Au      7.886997      5.865112      9.860204
  Au      5.174556      4.842899      9.679813
  Au      9.680848      4.874246      7.805010
  Au      6.870224      4.983135      7.426325
  Au      6.000750      6.222101      5.066877
  Au      4.329022      6.083560      7.322083
  Au      5.780987     10.058429      9.823778
  Au      3.854960      8.488603      8.535018
  Au      9.526221      7.575748      8.415361
  Au      7.884065      9.804967      8.003341
  Au      9.707093      9.064512      6.061033
  Au      8.023500      8.609723     10.554483
  Au      8.601058      6.544343      5.890942
  Au      6.976072      8.821086      5.504709
  Au      4.241677      8.339790      5.696094
  Au      5.363421     10.471663      7.059659
  Mn      5.724364      7.370866      9.959265
17
Coordinates from ORCA-job pbe E -3324.017236075714
  Au      7.887790      5.865161      9.862670
  Au      5.195729      4.813466      9.684617
  Au      9.684338      4.877782      7.802384
  Au      6.879839      4.980594      7.429054
  Au      5.996537      6.220250      5.076431
  Au      4.345434      6.098793      7.353257
  Au      5.784624     10.057711      9.815317
  Au      3.828993      8.517852      8.533954
  Au      9.525006      7.576117      8.414458
  Au      7.886825      9.805907      8.001488
  Au      9.709653      9.059786      6.061125
  Au      8.006407      8.595202     10.551464
  Au      8.601193      6.543819      5.886106
  Au      6.977362      8.821273      5.505154
  Au      4.244734      8.341211      5.708286
  Au      5.370305     10.485382      7.053169
  Mn      5.701045      7.360476      9.925061
17
Coordinates from ORCA-job pbe E -3324.018070787912
  Au      7.887127      5.865173      9.864543
  Au      5.218659      4.787966      9.688867
  Au      9.689813      4.877561      7.799797
  Au      6.888414      4.976917      7.429327
  Au      5.991369      6.219867      5.086556
  Au      4.362862      6.115651      7.384766
  Au      5.785900     10.055523      9.806949
  Au      3.803739      8.545959      8.533058
  Au      9.523658      7.575507      8.414169
  Au      7.889186      9.808166      8.000215
  Au      9.713562      9.056383      6.059672
  Au      7.988352      8.582500     10.550628
  Au      8.601242      6.542175      5.880541
  Au      6.977964      8.821060      5.505505
  Au      4.248905      8.342010      5.721448
  Au      5.376829     10.496140      7.047400
  Mn      5.678236      7.352225      9.890552
17
Coordinates from ORCA-job pbe E -3324.018834754565
  Au      7.885447      5.865937      9.864085
  Au      5.242453      4.764327      9.694530
  Au      9.695821      4.878630      7.797240
  Au      6.898410      4.971668      7.427119
  Au      5.986505      6.219198      5.094497
  Au      4.379451      6.131606      7.416716
  Au      5.786018     10.052531      9.799769
  Au      3.776398      8.574316      8.534971
  Au      9.519695      7.574360      8.412981
  Au      7.893213      9.809040      7.998902
  Au      9.716312      9.051278      6.059990
  Au      7.970863      8.571075     10.548776
  Au      8.602785      6.540778      5.875950
  Au      6.981103      8.820499      5.505793
  Au      4.251393      8.343067      5.732508
  Au      5.384234     10.506706      7.042349
  Mn      5.655714      7.345767      9.857818
17
Coordinates from ORCA-job pbe E -3324.019481721065
  Au      7.883593      5.867282      9.863661
  Au      5.265910      4.743576      9.697586
  Au      9.702819      4.877041      7.795364
  Au      6.906570      4.965779      7.421078
  Au      5.980124      6.219668      5.102933
  Au      4.397123      6.149629      7.447955
  Au      5.784070     10.048939      9.792678
  Au      3.751367      8.601204      8.535940
  Au      9.515876      7.572285      8.413494
  Au      7.896064      9.811538      7.998441
  Au      9.721132      9.047986      6.057991
  Au      7.953675      8.562220     10.550706
  Au      8.603590      6.537559      5.870274
  Au      6.982402      8.819057      5.505845
  Au      4.255373      8.342605      5.744336
  Au      5.390968     10.513582      7.037642
  Mn      5.635159      7.340832      9.828072
17
Coordinates from ORCA-job pbe E -3324.019966441851
  Au      7.881358      5.869784      9.860855
  Au      5.288474      4.723633      9.700268
  Au      9.709420      4.878323      7.794959
  Au      6.915691      4.957926      7.411671
  Au      5.973707      6.218964      5.108199
  Au      4.412819      6.165454      7.478805
  Au      5.781630     10.045892      9.787565
  Au      3.724696      8.628084      8.539200
  Au      9.509149      7.571244      8.412760
  Au      7.901134      9.812395      7.998030
  Au      9.723385      9.042016      6.058805
  Au      7.938721      8.555388     10.551094
  Au      8.605777      6.535288      5.865462
  Au      6.986575      8.816874      5.506386
  Au      4.257804      8.341765      5.754062
  Au      5.399255     10.520539      7.033462
  Mn      5.616221      7.337213      9.802411
17
Coordinates from ORCA-job pbe E -3324.020257479477
  Au      7.879574      5.873480      9.856807
  Au      5.309065      4.706790      9.698975
  Au      9.715487      4.877469      7.797418
  Au      6.922610      4.948702      7.396673
  Au      5.965285      6.218300      5.113013
  Au      4.427252      6.182095      7.507412
  Au      5.776711     10.043085      9.783063
  Au      3.702919      8.652998      8.540753
  Au      9.502825      7.570024      8.414096
  Au      7.904355      9.816376      7.999661
  Au      9.727880      9.038423      6.056747
  Au      7.925102      8.552317     10.555888
  Au      8.606984      6.530291      5.859207
  Au      6.988132      8.813622      5.507106
  Au      4.262916      8.338438      5.765343
  Au      5.407115     10.523257      7.030325
  Mn      5.601603      7.335116      9.781507
17
Coordinates from ORCA-job pbe E -3324.020377114672
  Au      7.877033      5.877593      9.850052
  Au      5.323416      4.696361      9.694428
  Au      9.719166      4.879475      7.803968
  Au      6.927018      4.938068      7.380181
  Au      5.958715      6.215676      5.113264
  Au      4.433173      6.190127      7.527773
  Au      5.771264     10.042347      9.785286
  Au      3.686313      8.671252      8.543524
  Au      9.495488      7.572225      8.412697
  Au      7.910297      9.819685      8.002042
  Au      9.727572      9.032950      6.057113
  Au      7.918547      8.553361     10.557605
  Au      8.608992      6.527291      5.855143
  Au      6.992459      8.809674      5.508842
  Au      4.267389      8.333945      5.772671
  Au      5.414821     10.525090      7.028861
  Mn      5.594153      7.335664      9.770543
17
Coordinates from ORCA-job pbe E -3324.020453599390
  Au      7.875240      5.879932      9.842881
  Au      5.326800      4.693675      9.690667
  Au      9.718811      4.881368      7.811301
  Au      6.927371      4.929727      7.368463
  Au      5.955296      6.212882      5.111484
  Au      4.429460      6.192228      7.534493
  Au      5.767103     10.042095      9.787249
  Au      3.684257      8.677517      8.543106
  Au      9.492073      7.574619      8.412063
  Au      7.911608      9.824978      8.005554
  Au      9.727807      9.033107      6.054742
  Au      7.917975      8.556961     10.560359
  Au      8.610291      6.523566      5.853368
  Au      6.993654      8.807589      5.510738
  Au      4.272338      8.330340      5.776858
  Au      5.419013     10.522908      7.030393
  Mn      5.596720      7.337291      9.770276
17
Coordinates from ORCA-job pbe E -3324.020548777240
  Au      7.867968      5.882082      9.829019
  Au      5.328643      4.693759      9.677610
  Au      9.716038      4.885252      7.827219
  Au      6.921675      4.915002      7.351712
  Au      5.953592      6.207315      5.110400
  Au      4.419802      6.189454      7.542767
  Au      5.760474     10.042352      9.796867
  Au      3.685299      8.682171      8.540824
  Au      9.487266      7.583730      8.407785
  Au      7.917118      9.835785      8.011962
  Au      9.724512      9.034415      6.049547
  Au      7.921588      8.563686     10.560975
  Au      8.611308      6.518687      5.852611
  Au      6.997377      8.802626      5.514883
  Au      4.282631      8.322840      5.782633
  Au      5.423719     10.520380      7.033692
  Mn      5.606803      7.341248      9.773486
17
Coordinates from ORCA-job pbe E -3324.020578024242
  Au      7.864531      5.881295      9.822149
  Au      5.325910      4.690418      9.679665
  Au      9.713812      4.888592      7.831282
  Au      6.919964      4.909000      7.350157
  Au      5.955961      6.205760      5.109949
  Au      4.413189      6.188626      7.543915
  Au      5.760844     10.041871      9.795247
  Au      3.688324      8.680857      8.538787
  Au      9.486898      7.587093      8.404990
  Au      7.916935      9.841037      8.013081
  Au      9.722592      9.037126      6.046630
  Au      7.922129      8.563369     10.560905
  Au      8.612708      6.516842      5.854732
  Au      6.998692      8.802958      5.517238
  Au      4.286093      8.323434      5.783757
  Au      5.425159     10.521234      7.035451
  Mn      5.612074      7.341271      9.776062
17
Coordinates from ORCA-job pbe E -3324.020598183206
  Au      7.862110      5.881152      9.818823
  Au      5.324325      4.687195      9.679031
  Au      9.713189      4.888429      7.832528
  Au      6.916372      4.906045      7.351564
  Au      5.958572      6.205985      5.112725
  Au      4.412323      6.187672      7.545525
  Au      5.761663     10.041970      9.794692
  Au      3.689520      8.679217      8.537312
  Au      9.487886      7.589738      8.403687
  Au      7.918017      9.845402      8.013301
  Au      9.721740      9.039198      6.044451
  Au      7.921752      8.561098     10.559167
  Au      8.612498      6.515525      5.857155
  Au      6.998810      8.802892      5.518622
  Au      4.288388      8.323591      5.784038
  Au      5.423799     10.524574      7.035278
  Mn      5.614851      7.341101      9.776097
17
Coordinates from ORCA-job pbe E -3324.020612163049
  Au      7.861288      5.881114      9.815958
  Au      5.323650      4.682033      9.679947
  Au      9.714162      4.887319      7.831058
  Au      6.913475      4.903776      7.354701
  Au      5.960400      6.207754      5.115917
  Au      4.413632      6.187403      7.547734
  Au      5.762367     10.042406      9.791860
  Au      3.689407      8.678145      8.536911
  Au      9.489633      7.590856      8.402804
  Au      7.918940      9.848975      8.011697
  Au      9.720736      9.039429      6.044021
  Au      7.919154      8.558064     10.557612
  Au      8.612543      6.515058      5.860967
  Au      6.998856      8.803584      5.520699
  Au      4.288955      8.325011      5.783977
  Au      5.422539     10.529209      7.033693
  Mn      5.616079      7.340647      9.774438
17
Coordinates from ORCA-job pbe E -3324.020617351445
  Au      7.861906      5.881458      9.814884
  Au      5.324278      4.679755      9.679840
  Au      9.714946      4.885973      7.830305
  Au      6.913016      4.902612      7.354493
  Au      5.960364      6.208704      5.116806
  Au      4.414771      6.187760      7.548932
  Au      5.762350     10.042913      9.790397
  Au      3.688737      8.678343      8.537416
  Au      9.490290      7.591013      8.404027
  Au      7.919679      9.850347      8.011409
  Au      9.721211      9.038723      6.044701
  Au      7.917474      8.557475     10.556023
  Au      8.612045      6.514659      5.862904
  Au      6.998486      8.803659      5.521910
  Au      4.288012      8.325276      5.784527
  Au      5.421780     10.531069      7.032682
  Mn      5.616470      7.341045      9.772739
