15
E=  -1600.07397213;c=0;m=3
Au      4.649449267887870      7.397414509160310      6.096374494743660
Au      6.606856714068430      9.418729940533540      5.761492962638630
Au      5.850827632701100      9.735535114593850      8.473812972824620
Au      8.796443474953829      6.930069716733010      9.360380848304750
Au      6.263429941883570      7.400673969536750     10.183689189324870
Au      5.233685911961650      5.396958759220620      8.145864109347910
Au      3.825373931676150      7.778618028360930      8.779746324940850
Au     10.757482333293609      7.786675117822350      7.482004471137870
Au      8.539178131296270      9.431045168127330      7.848386102694520
Au      9.342452511759790      8.591786580875240      5.192172012308620
Au     10.511553158483251      5.067841742269010      8.066869338144571
Au      9.751065878838061      5.828285838493550      5.490187257640930
Au      7.769488219988730      4.931792854530000      7.328159010048430
Au      7.140599338092580      6.709408861030190      5.080641440246470
Fe      6.717337533115060      7.416353968713340      7.674655365653470
