11
Coordinates from ORCA-job pbe E -2402.465020318403
  Au      7.911646      4.864401      8.337928
  Au     10.691371      5.844276      8.247131
  Au      9.035189      7.730794      9.236421
  Au      7.197625      8.665302      7.565872
  Au      6.907968      6.546911      5.120611
  Au      8.988944      8.727153      5.202820
  Au     11.435782      4.225337      6.137140
  Au      8.783139      4.677508      5.491512
  Au     10.878356      6.883043      5.504231
  Au      6.210325      9.216345      5.097133
  Cr      8.703166      6.787711      6.927954
11
Coordinates from ORCA-job pbe E -2402.467702728368
  Au      7.905688      4.836726      8.334819
  Au     10.697061      5.814922      8.244263
  Au      9.056503      7.742437      9.278601
  Au      7.177799      8.699800      7.571812
  Au      6.887201      6.552935      5.096539
  Au      9.009441      8.725779      5.184214
  Au     11.429073      4.279231      6.146827
  Au      8.780039      4.653261      5.497106
  Au     10.887495      6.875347      5.486420
  Au      6.213028      9.203497      5.096436
  Cr      8.700183      6.784846      6.931718
11
Coordinates from ORCA-job pbe E -2402.469163943773
  Au      7.920861      4.801203      8.322691
  Au     10.684358      5.810511      8.276405
  Au      9.052622      7.766435      9.311391
  Au      7.174475      8.741548      7.601076
  Au      6.886484      6.540143      5.062117
  Au      9.019041      8.732071      5.163242
  Au     11.441628      4.275904      6.133562
  Au      8.740190      4.629293      5.502803
  Au     10.902536      6.897585      5.456907
  Au      6.225091      9.184074      5.102557
  Cr      8.696226      6.790014      6.936003
11
Coordinates from ORCA-job pbe E -2402.470455229376
  Au      7.949781      4.754138      8.296015
  Au     10.656028      5.815550      8.294032
  Au      9.043053      7.784637      9.322518
  Au      7.204434      8.783405      7.637699
  Au      6.902584      6.516303      5.017840
  Au      9.017928      8.726407      5.139059
  Au     11.400854      4.336139      6.143810
  Au      8.707288      4.607787      5.515176
  Au     10.908857      6.899135      5.433856
  Au      6.260518      9.154207      5.133881
  Cr      8.692187      6.791073      6.934868
11
Coordinates from ORCA-job pbe E -2402.470926278052
  Au      7.975898      4.716682      8.263682
  Au     10.635419      5.833942      8.310672
  Au      9.047345      7.790230      9.320644
  Au      7.234571      8.817541      7.658570
  Au      6.913021      6.509331      4.977045
  Au      9.016153      8.720352      5.124044
  Au     11.371891      4.338407      6.183166
  Au      8.704705      4.586238      5.516188
  Au     10.900507      6.914803      5.415857
  Au      6.255490      9.144869      5.170684
  Cr      8.688513      6.796385      6.928200
11
Coordinates from ORCA-job pbe E -2402.471251327104
  Au      7.978583      4.695608      8.252217
  Au     10.628035      5.846098      8.325183
  Au      9.051545      7.787376      9.325877
  Au      7.264299      8.850132      7.661629
  Au      6.925607      6.504179      4.952383
  Au      8.999292      8.724137      5.124043
  Au     11.373701      4.346114      6.187655
  Au      8.696951      4.574304      5.513966
  Au     10.896263      6.906063      5.415320
  Au      6.249155      9.134502      5.183142
  Cr      8.680081      6.800268      6.927339
11
Coordinates from ORCA-job pbe E -2402.471619237915
  Au      7.977186      4.669181      8.239305
  Au     10.631894      5.848109      8.333465
  Au      9.054428      7.785398      9.339584
  Au      7.312927      8.898680      7.661153
  Au      6.946818      6.499822      4.922988
  Au      8.982010      8.721749      5.132070
  Au     11.380875      4.355532      6.190847
  Au      8.690080      4.562318      5.512538
  Au     10.872315      6.902627      5.422457
  Au      6.231434      9.118612      5.184178
  Cr      8.663545      6.806753      6.930168
11
Coordinates from ORCA-job pbe E -2402.471858749352
  Au      7.977351      4.657154      8.230062
  Au     10.630395      5.844417      8.334492
  Au      9.060027      7.784774      9.347147
  Au      7.348117      8.939696      7.643215
  Au      6.967854      6.500165      4.897828
  Au      8.961133      8.728973      5.139605
  Au     11.384798      4.344975      6.197085
  Au      8.703964      4.553808      5.510412
  Au     10.851980      6.898093      5.433989
  Au      6.212235      9.102783      5.204436
  Cr      8.645658      6.813944      6.930482
11
Coordinates from ORCA-job pbe E -2402.472103450449
  Au      7.979339      4.649069      8.225147
  Au     10.618406      5.828406      8.331640
  Au      9.068957      7.785237      9.351521
  Au      7.382313      8.976590      7.639112
  Au      6.983866      6.489776      4.877966
  Au      8.951911      8.738319      5.141981
  Au     11.394862      4.342844      6.194223
  Au      8.723638      4.547323      5.515446
  Au     10.831644      6.891636      5.449563
  Au      6.184287      9.100664      5.207156
  Cr      8.624290      6.818919      6.935000
11
Coordinates from ORCA-job pbe E -2402.472561402388
  Au      7.976643      4.643457      8.221426
  Au     10.589366      5.797656      8.319475
  Au      9.081870      7.791733      9.349413
  Au      7.417113      9.019772      7.637275
  Au      6.997278      6.480887      4.860594
  Au      8.944172      8.746977      5.141416
  Au     11.423069      4.347182      6.184698
  Au      8.746726      4.546013      5.527746
  Au     10.798319      6.890862      5.466561
  Au      6.182059      9.078549      5.216381
  Cr      8.586899      6.825694      6.943770
11
Coordinates from ORCA-job pbe E -2402.473221442188
  Au      7.952244      4.652715      8.232722
  Au     10.549240      5.758280      8.289234
  Au      9.104534      7.800244      9.329534
  Au      7.429973      9.053975      7.642522
  Au      7.006005      6.459885      4.852631
  Au      8.948799      8.765283      5.140830
  Au     11.470381      4.342463      6.171213
  Au      8.785339      4.562719      5.541157
  Au     10.770281      6.886592      5.482973
  Au      6.187964      9.054766      5.232201
  Cr      8.538752      6.831860      6.953737
11
Coordinates from ORCA-job pbe E -2402.473840275477
  Au      7.911618      4.657116      8.240270
  Au     10.514267      5.737872      8.258449
  Au      9.131658      7.808480      9.304809
  Au      7.435837      9.089356      7.657722
  Au      7.015139      6.436888      4.836822
  Au      8.962015      8.782032      5.149291
  Au     11.510873      4.338946      6.155048
  Au      8.821512      4.579872      5.560955
  Au     10.750890      6.879898      5.489574
  Au      6.200500      9.017105      5.254296
  Cr      8.489204      6.841216      6.961520
11
Coordinates from ORCA-job pbe E -2402.474453209321
  Au      7.864720      4.656158      8.236655
  Au     10.486942      5.730370      8.224295
  Au      9.160791      7.819418      9.279439
  Au      7.439716      9.129999      7.683094
  Au      7.024979      6.406239      4.809465
  Au      8.975904      8.800693      5.166639
  Au     11.545215      4.333402      6.154313
  Au      8.847432      4.592978      5.582089
  Au     10.744166      6.872191      5.482947
  Au      6.213694      8.972271      5.287236
  Cr      8.439954      6.855064      6.962583
11
Coordinates from ORCA-job pbe E -2402.475092848069
  Au      7.817189      4.655492      8.223407
  Au     10.457886      5.732359      8.200627
  Au      9.190283      7.836404      9.261083
  Au      7.439959      9.175339      7.713760
  Au      7.032993      6.370110      4.777698
  Au      8.998306      8.810403      5.194849
  Au     11.564098      4.333427      6.139247
  Au      8.868179      4.599302      5.606688
  Au     10.748498      6.867136      5.470293
  Au      6.230863      8.914158      5.320789
  Cr      8.395258      6.874651      6.960312
11
Coordinates from ORCA-job pbe E -2402.475805901820
  Au      7.773680      4.660176      8.195718
  Au     10.432609      5.732602      8.173163
  Au      9.218580      7.858148      9.243509
  Au      7.447998      9.222200      7.746373
  Au      7.038475      6.329674      4.743039
  Au      9.012633      8.825690      5.230026
  Au     11.581093      4.329452      6.140004
  Au      8.884175      4.601375      5.627475
  Au     10.757645      6.858872      5.458005
  Au      6.243184      8.850387      5.361361
  Cr      8.353442      6.900206      6.950080
11
Coordinates from ORCA-job pbe E -2402.476599739437
  Au      7.723474      4.676074      8.161594
  Au     10.405098      5.732730      8.149498
  Au      9.250112      7.885752      9.226278
  Au      7.450462      9.265081      7.780902
  Au      7.037182      6.282463      4.710721
  Au      9.036342      8.831687      5.271074
  Au     11.595175      4.332879      6.133927
  Au      8.900076      4.600212      5.644658
  Au     10.767871      6.853650      5.447918
  Au      6.261730      8.779371      5.406954
  Cr      8.315991      6.928883      6.935229
11
Coordinates from ORCA-job pbe E -2402.477404680808
  Au      7.675045      4.702675      8.124224
  Au     10.372436      5.727797      8.126001
  Au      9.286859      7.910809      9.203979
  Au      7.452258      9.303553      7.815637
  Au      7.038490      6.233308      4.682077
  Au      9.059368      8.849190      5.307622
  Au     11.607255      4.332099      6.132337
  Au      8.917875      4.601512      5.657722
  Au     10.772926      6.848549      5.444931
  Au      6.280098      8.698516      5.457105
  Cr      8.280904      6.960773      6.917120
11
Coordinates from ORCA-job pbe E -2402.478142661134
  Au      7.617258      4.753019      8.081112
  Au     10.337837      5.712406      8.116857
  Au      9.328549      7.947961      9.178262
  Au      7.457280      9.324814      7.854615
  Au      7.027118      6.176973      4.656060
  Au      9.091749      8.865927      5.333019
  Au     11.619591      4.342335      6.131312
  Au      8.940180      4.589320      5.649174
  Au     10.764086      6.853532      5.458382
  Au      6.301996      8.613976      5.517452
  Cr      8.257867      6.988517      6.892510
11
Coordinates from ORCA-job pbe E -2402.478425136176
  Au      7.592258      4.776035      8.055832
  Au     10.299272      5.697977      8.101459
  Au      9.365038      7.948476      9.151392
  Au      7.458386      9.358010      7.874763
  Au      7.050402      6.136540      4.634701
  Au      9.107390      8.909389      5.345053
  Au     11.631980      4.344858      6.137173
  Au      8.942125      4.588826      5.663253
  Au     10.752463      6.846714      5.461561
  Au      6.315269      8.546295      5.566224
  Cr      8.228929      7.015662      6.877342
11
Coordinates from ORCA-job pbe E -2402.478774138746
  Au      7.587572      4.804351      8.059971
  Au     10.289763      5.665616      8.133918
  Au      9.378727      7.946111      9.145756
  Au      7.473141      9.340291      7.864707
  Au      7.038138      6.134117      4.645565
  Au      9.118354      8.935645      5.318889
  Au     11.642155      4.365835      6.135338
  Au      8.950080      4.568218      5.632396
  Au     10.722035      6.856173      5.495176
  Au      6.291498      8.550604      5.561133
  Cr      8.252050      7.001819      6.875904
11
Coordinates from ORCA-job pbe E -2402.478939610739
  Au      7.564820      4.795232      8.062439
  Au     10.283909      5.660446      8.132608
  Au      9.374283      7.952606      9.136511
  Au      7.476418      9.350409      7.869256
  Au      7.027517      6.130930      4.641402
  Au      9.128311      8.936635      5.324913
  Au     11.649699      4.380136      6.127814
  Au      8.948851      4.562069      5.644668
  Au     10.732755      6.864166      5.483808
  Au      6.309145      8.532745      5.572359
  Cr      8.247804      7.003408      6.872976
11
Coordinates from ORCA-job pbe E -2402.479073960783
  Au      7.567102      4.779979      8.070898
  Au     10.279864      5.651393      8.132975
  Au      9.368037      7.946789      9.129214
  Au      7.480372      9.358273      7.864157
  Au      7.038638      6.125413      4.643084
  Au      9.124568      8.945264      5.324754
  Au     11.647850      4.386876      6.121674
  Au      8.945452      4.560878      5.658272
  Au     10.725420      6.870810      5.479820
  Au      6.318447      8.541568      5.569875
  Cr      8.247762      7.001539      6.874031
11
Coordinates from ORCA-job pbe E -2402.479235424615
  Au      7.546446      4.777770      8.075589
  Au     10.266614      5.621142      8.136855
  Au      9.384159      7.941534      9.104539
  Au      7.489277      9.373277      7.853301
  Au      7.046985      6.109011      4.652132
  Au      9.122730      8.980956      5.343823
  Au     11.650952      4.400684      6.109852
  Au      8.950197      4.558504      5.672906
  Au     10.704073      6.882962      5.487212
  Au      6.327233      8.522600      5.560179
  Cr      8.254847      7.000341      6.872366
11
Coordinates from ORCA-job pbe E -2402.479333825120
  Au      7.535227      4.776643      8.065508
  Au     10.249902      5.595189      8.150860
  Au      9.398316      7.942974      9.083505
  Au      7.509621      9.385727      7.841381
  Au      7.041282      6.092945      4.651775
  Au      9.123583      9.003829      5.359678
  Au     11.657975      4.425671      6.109601
  Au      8.949530      4.542485      5.679931
  Au     10.682723      6.896251      5.495888
  Au      6.331016      8.511299      5.566312
  Cr      8.264337      6.995770      6.864315
11
Coordinates from ORCA-job pbe E -2402.479387785118
  Au      7.519287      4.783777      8.060618
  Au     10.246153      5.586824      8.151013
  Au      9.405954      7.948823      9.074973
  Au      7.511439      9.388813      7.835126
  Au      7.032015      6.084363      4.655287
  Au      9.126660      9.010972      5.378714
  Au     11.665226      4.429233      6.105847
  Au      8.955673      4.541327      5.682355
  Au     10.684821      6.897429      5.497036
  Au      6.326589      8.504648      5.567305
  Cr      8.269695      6.992572      6.860481
11
Coordinates from ORCA-job pbe E -2402.479426351183
  Au      7.516421      4.785723      8.052357
  Au     10.244614      5.590548      8.153118
  Au      9.408847      7.954147      9.074555
  Au      7.515020      9.391791      7.831407
  Au      7.023324      6.080414      4.657025
  Au      9.128511      9.012023      5.393441
  Au     11.661826      4.426474      6.108653
  Au      8.956148      4.542061      5.679125
  Au     10.692284      6.900461      5.493458
  Au      6.321370      8.496166      5.568526
  Cr      8.275148      6.988976      6.857090
11
Coordinates from ORCA-job pbe E -2402.479457430771
  Au      7.508711      4.790765      8.047295
  Au     10.241348      5.593901      8.150156
  Au      9.410989      7.959373      9.071825
  Au      7.514946      9.393781      7.831422
  Au      7.017462      6.071839      4.658439
  Au      9.133501      9.013599      5.404386
  Au     11.661153      4.425455      6.109724
  Au      8.958047      4.543597      5.676795
  Au     10.699048      6.902204      5.490954
  Au      6.321237      8.488967      5.574883
  Cr      8.277071      6.985301      6.852875
11
Coordinates from ORCA-job pbe E -2402.479490133448
  Au      7.506525      4.791404      8.046160
  Au     10.237855      5.598415      8.147570
  Au      9.408761      7.960279      9.070616
  Au      7.517056      9.396901      7.829349
  Au      7.011788      6.064449      4.661866
  Au      9.138056      9.017549      5.412035
  Au     11.658386      4.425799      6.110741
  Au      8.956830      4.545072      5.674257
  Au     10.704615      6.905860      5.489163
  Au      6.323534      8.484213      5.578363
  Cr      8.280107      6.978841      6.848634
11
Coordinates from ORCA-job pbe E -2402.479517837421
  Au      7.507381      4.791599      8.047269
  Au     10.235129      5.601261      8.145685
  Au      9.404358      7.961966      9.071011
  Au      7.519077      9.399598      7.830308
  Au      7.006645      6.057540      4.664041
  Au      9.141249      9.022638      5.413795
  Au     11.655517      4.425643      6.110254
  Au      8.956159      4.544962      5.670437
  Au     10.707072      6.908835      5.490515
  Au      6.329941      8.480590      5.581020
  Cr      8.280985      6.974150      6.844419
11
Coordinates from ORCA-job pbe E -2402.479556566906
  Au      7.513534      4.785878      8.054907
  Au     10.237841      5.607924      8.142534
  Au      9.395526      7.955580      9.075528
  Au      7.520257      9.403254      7.828046
  Au      6.998004      6.054329      4.668472
  Au      9.143509      9.024533      5.411904
  Au     11.654234      4.426571      6.109557
  Au      8.952297      4.546292      5.666570
  Au     10.709630      6.911687      5.494075
  Au      6.337587      8.486034      5.576276
  Cr      8.281092      6.966700      6.840887
11
Coordinates from ORCA-job pbe E -2402.479621763651
  Au      7.526889      4.779853      8.061897
  Au     10.241519      5.611518      8.141365
  Au      9.380281      7.952139      9.082815
  Au      7.525645      9.409552      7.825646
  Au      6.984106      6.048336      4.673783
  Au      9.144879      9.031286      5.407897
  Au     11.650401      4.424525      6.106284
  Au      8.949626      4.546872      5.659358
  Au     10.710636      6.915037      5.504238
  Au      6.349031      8.488712      5.571245
  Cr      8.280500      6.960952      6.834227
11
Coordinates from ORCA-job pbe E -2402.479741129054
  Au      7.550241      4.770074      8.073536
  Au     10.253968      5.619224      8.140204
  Au      9.356790      7.938682      9.097405
  Au      7.531526      9.419320      7.815940
  Au      6.959552      6.042962      4.683889
  Au      9.148210      9.032976      5.402631
  Au     11.646076      4.420303      6.101106
  Au      8.945085      4.552691      5.648310
  Au     10.715141      6.918925      5.521160
  Au      6.358869      8.498242      5.558115
  Cr      8.278054      6.955382      6.826460
11
Coordinates from ORCA-job pbe E -2402.479940286955
  Au      7.582920      4.762676      8.083231
  Au     10.270282      5.625008      8.140010
  Au      9.324990      7.922837      9.112945
  Au      7.539799      9.427764      7.804826
  Au      6.926994      6.039181      4.694417
  Au      9.154846      9.030375      5.397764
  Au     11.643267      4.412994      6.097494
  Au      8.942103      4.561367      5.636900
  Au     10.722840      6.920215      5.538801
  Au      6.363270      8.508803      5.544744
  Cr      8.272203      6.957561      6.817622
11
Coordinates from ORCA-job pbe E -2402.480177002143
  Au      7.604547      4.765758      8.089294
  Au     10.285645      5.626832      8.142338
  Au      9.297640      7.900287      9.123908
  Au      7.550693      9.438932      7.781720
  Au      6.891238      6.023922      4.713263
  Au      9.167511      9.029866      5.412204
  Au     11.639814      4.408077      6.090578
  Au      8.942637      4.576525      5.623739
  Au     10.734360      6.925476      5.552320
  Au      6.359736      8.510317      5.530133
  Cr      8.269691      6.962791      6.809257
11
Coordinates from ORCA-job pbe E -2402.480305513852
  Au      7.627341      4.781879      8.088365
  Au     10.301389      5.623831      8.137695
  Au      9.256383      7.888974      9.124440
  Au      7.556078      9.435522      7.772667
  Au      6.848471      6.010513      4.730544
  Au      9.189369      9.024076      5.433936
  Au     11.644299      4.395538      6.089438
  Au      8.950610      4.592229      5.620165
  Au     10.757816      6.921855      5.547323
  Au      6.349202      8.513197      5.522339
  Cr      8.262555      6.981168      6.801842
11
Coordinates from ORCA-job pbe E -2402.480480778207
  Au      7.634672      4.795939      8.093741
  Au     10.305015      5.639698      8.130842
  Au      9.235659      7.842506      9.138896
  Au      7.566061      9.453402      7.758509
  Au      6.815004      5.973631      4.759497
  Au      9.205728      9.038595      5.439328
  Au     11.637564      4.398660      6.086777
  Au      8.947237      4.606673      5.606249
  Au     10.769623      6.934837      5.556114
  Au      6.367661      8.502488      5.512554
  Cr      8.259289      6.982353      6.786246
11
Coordinates from ORCA-job pbe E -2402.480533032333
  Au      7.613293      4.793637      8.105228
  Au     10.304693      5.634222      8.120354
  Au      9.240826      7.863414      9.139056
  Au      7.553665      9.449647      7.769420
  Au      6.841876      5.979558      4.752394
  Au      9.200284      9.041320      5.432754
  Au     11.642772      4.396946      6.073898
  Au      8.948625      4.600805      5.611993
  Au     10.764424      6.929617      5.551172
  Au      6.375448      8.505827      5.512682
  Cr      8.257607      6.973791      6.799803
11
Coordinates from ORCA-job pbe E -2402.480646766247
  Au      7.641523      4.808794      8.115632
  Au     10.313367      5.637920      8.111136
  Au      9.202015      7.838350      9.143896
  Au      7.557055      9.448958      7.768371
  Au      6.814326      5.962511      4.768256
  Au      9.216103      9.047963      5.441540
  Au     11.641528      4.389711      6.069790
  Au      8.949109      4.607557      5.612439
  Au     10.772900      6.930089      5.549104
  Au      6.386532      8.508982      5.499880
  Cr      8.249055      6.987947      6.788710
11
Coordinates from ORCA-job pbe E -2402.480675933885
  Au      7.630793      4.814220      8.093500
  Au     10.309490      5.639886      8.111932
  Au      9.192699      7.821799      9.148544
  Au      7.570239      9.454966      7.765876
  Au      6.801557      5.940372      4.793440
  Au      9.223923      9.059231      5.443401
  Au     11.640960      4.400986      6.069562
  Au      8.949277      4.605146      5.620093
  Au     10.768989      6.940192      5.540193
  Au      6.399026      8.499803      5.496217
  Cr      8.256559      6.992181      6.785996
11
Coordinates from ORCA-job pbe E -2402.480719352049
  Au      7.634415      4.818920      8.106145
  Au     10.318181      5.646666      8.107809
  Au      9.177832      7.811404      9.159185
  Au      7.568950      9.450257      7.760962
  Au      6.798376      5.942482      4.799731
  Au      9.224268      9.056808      5.444361
  Au     11.641854      4.397345      6.064220
  Au      8.952653      4.606707      5.615383
  Au     10.772431      6.936166      5.535096
  Au      6.399709      8.509668      5.484686
  Cr      8.254843      6.992358      6.791176
11
Coordinates from ORCA-job pbe E -2402.480736840954
  Au      7.634105      4.815995      8.101750
  Au     10.319832      5.656323      8.104776
  Au      9.166413      7.815206      9.172557
  Au      7.571395      9.442400      7.766836
  Au      6.802518      5.952299      4.800721
  Au      9.220291      9.055487      5.432885
  Au     11.644328      4.397650      6.067921
  Au      8.953952      4.596196      5.617135
  Au     10.767823      6.930054      5.521947
  Au      6.403399      8.517476      5.485241
  Cr      8.259457      6.989696      6.796985
11
Coordinates from ORCA-job pbe E -2402.480764169573
  Au      7.636723      4.821990      8.102690
  Au     10.323183      5.662202      8.100373
  Au      9.150959      7.800230      9.184759
  Au      7.577588      9.446421      7.761600
  Au      6.796544      5.942812      4.811525
  Au      9.225332      9.060737      5.434549
  Au     11.644818      4.398543      6.065947
  Au      8.953067      4.596319      5.614740
  Au     10.766329      6.930290      5.516381
  Au      6.409699      8.514854      5.480977
  Cr      8.259270      6.994384      6.795212
11
Coordinates from ORCA-job pbe E -2402.480777656797
  Au      7.638741      4.822568      8.099099
  Au     10.324345      5.667726      8.098912
  Au      9.138154      7.790083      9.196215
  Au      7.584842      9.448932      7.758263
  Au      6.793319      5.938406      4.819808
  Au      9.228117      9.063237      5.433326
  Au     11.644723      4.400470      6.067005
  Au      8.953704      4.595052      5.615347
  Au     10.762323      6.929692      5.507486
  Au      6.412609      8.514425      5.478990
  Cr      8.262635      6.998189      6.794303
11
Coordinates from ORCA-job pbe E -2402.480787757206
  Au      7.639947      4.820515      8.095954
  Au     10.324503      5.673244      8.097809
  Au      9.128257      7.785556      9.206196
  Au      7.590266      9.450240      7.758096
  Au      6.792996      5.939062      4.822649
  Au      9.229535      9.063406      5.429469
  Au     11.646195      4.401749      6.070155
  Au      8.954495      4.593531      5.616082
  Au     10.758057      6.926199      5.498129
  Au      6.412946      8.514737      5.480840
  Cr      8.266315      7.000542      6.793376
11
Coordinates from ORCA-job pbe E -2402.480792762733
  Au      7.640186      4.819228      8.094355
  Au     10.323918      5.676278      8.098139
  Au      9.122470      7.783592      9.211390
  Au      7.592946      9.450554      7.759476
  Au      6.793647      5.940648      4.823115
  Au      9.230260      9.062501      5.425616
  Au     11.647755      4.402292      6.072857
  Au      8.956199      4.593759      5.616383
  Au     10.755134      6.922530      5.491340
  Au      6.411794      8.515485      5.483640
  Cr      8.269203      7.001913      6.792444
11
Coordinates from ORCA-job pbe E -2402.480794602726
  Au      7.639272      4.819881      8.094177
  Au     10.323758      5.676483      8.098526
  Au      9.120411      7.782540      9.212307
  Au      7.593783      9.450879      7.760260
  Au      6.794341      5.941113      4.822946
  Au      9.230290      9.061974      5.424212
  Au     11.649164      4.402452      6.074116
  Au      8.957176      4.594829      5.616289
  Au     10.754222      6.920676      5.488363
  Au      6.410851      8.515358      5.485561
  Cr      8.270242      7.002596      6.791998
11
Coordinates from ORCA-job pbe E -2402.480796192037
  Au      7.638730      4.821765      8.094755
  Au     10.323856      5.676245      8.099027
  Au      9.118204      7.780623      9.212727
  Au      7.594280      9.451161      7.761217
  Au      6.795274      5.941520      4.822461
  Au      9.229742      9.061005      5.422401
  Au     11.650139      4.402472      6.075279
  Au      8.958144      4.596186      5.616001
  Au     10.753887      6.919368      5.485708
  Au      6.410251      8.515380      5.487515
  Cr      8.271005      7.003054      6.791664
