15
E=  -1600.14814823;c=0;m=3
Au      7.507275047401940      7.732006216100780     10.607085424586600
Au      9.571442494738079      7.098349892213000      6.555130239698500
Au      7.882959254989690     10.706534701507890      6.681681249525670
Au      9.677536564637681      6.496132000216580      9.311516070768700
Au      6.120939356607440      9.295511825812090      8.393449808334569
Au      8.985402277814281      9.134716460489789      8.583845055076839
Au      5.630237397759550      4.931556448139660      7.659224280639970
Au      5.063919780384230      6.897488980794290      9.619105656867930
Au      8.383607285989219      4.693760543029200      7.581066290678830
Au      8.467814890678650      8.674206155326489      4.656417495382210
Au      7.240132986955880     11.048955823051481      4.035830088936690
Au      4.505070043049740      7.413344259328650      6.892694833474210
Au      5.698629308833270      9.267668511075239      5.378598284318640
Au      6.929946807867770      6.489796161273040      5.598064873185910
Fe      7.294663642292520      6.954497591641910      8.160531738524931
