15
Coordinates from ORCA-job pbe E -3165.061959242792
  Au      7.507275      7.732006     10.607085
  Au      9.571442      7.098350      6.555130
  Au      7.882959     10.706535      6.681681
  Au      9.677537      6.496132      9.311516
  Au      6.120939      9.295512      8.393450
  Au      8.985402      9.134716      8.583845
  Au      5.630237      4.931556      7.659224
  Au      5.063920      6.897489      9.619106
  Au      8.383607      4.693761      7.581066
  Au      8.467815      8.674206      4.656417
  Au      7.240133     11.048956      4.035830
  Au      4.505070      7.413344      6.892695
  Au      5.698629      9.267669      5.378598
  Au      6.929947      6.489796      5.598065
  Fe      7.294664      6.954498      8.160532
15
Coordinates from ORCA-job pbe E -3165.063332141156
  Au      7.501121      7.745546     10.607226
  Au      9.542072      7.109276      6.545559
  Au      7.873271     10.671827      6.702888
  Au      9.686508      6.501837      9.307744
  Au      6.132571      9.299111      8.375678
  Au      8.958261      9.136700      8.564603
  Au      5.642318      4.940752      7.646258
  Au      5.073837      6.913709      9.612928
  Au      8.381652      4.692631      7.565631
  Au      8.455390      8.649550      4.688191
  Au      7.243310     11.019874      4.065767
  Au      4.528503      7.428750      6.884235
  Au      5.708644      9.248400      5.400825
  Au      6.936920      6.510250      5.597707
  Fe      7.295199      6.966311      8.149001
15
Coordinates from ORCA-job pbe E -3165.063801745434
  Au      7.495791      7.742917     10.620398
  Au      9.545541      7.093350      6.565829
  Au      7.859527     10.678625      6.693614
  Au      9.686040      6.489341      9.319604
  Au      6.136997      9.310771      8.360505
  Au      8.961856      9.117812      8.581970
  Au      5.654894      4.938297      7.642362
  Au      5.083608      6.921020      9.618448
  Au      8.379580      4.678588      7.566325
  Au      8.442418      8.654362      4.677640
  Au      7.233354     11.038275      4.044127
  Au      4.538725      7.427277      6.889044
  Au      5.702311      9.247894      5.399561
  Au      6.940277      6.526400      5.587880
  Fe      7.298658      6.969596      8.146935
15
Coordinates from ORCA-job pbe E -3165.064064941906
  Au      7.499306      7.745217     10.629603
  Au      9.535465      7.093581      6.561538
  Au      7.862791     10.680132      6.689647
  Au      9.680576      6.484856      9.321958
  Au      6.124402      9.317529      8.352323
  Au      8.950307      9.119016      8.579203
  Au      5.663651      4.926818      7.650726
  Au      5.090886      6.915410      9.632225
  Au      8.385906      4.670989      7.564405
  Au      8.445026      8.658803      4.676919
  Au      7.257608     11.049660      4.039401
  Au      4.533293      7.408289      6.906867
  Au      5.706214      9.260200      5.388358
  Au      6.928657      6.530705      5.578489
  Fe      7.295490      6.973321      8.142579
15
Coordinates from ORCA-job pbe E -3165.064251534130
  Au      7.504423      7.747278     10.632021
  Au      9.531413      7.091869      6.559133
  Au      7.865645     10.678618      6.688653
  Au      9.667866      6.479722      9.322894
  Au      6.115838      9.321474      8.344030
  Au      8.944356      9.120012      8.580054
  Au      5.669694      4.926014      7.652309
  Au      5.096710      6.916163      9.634857
  Au      8.391614      4.670423      7.562812
  Au      8.447078      8.660379      4.678993
  Au      7.263746     11.045472      4.045178
  Au      4.542677      7.405502      6.912508
  Au      5.704473      9.256005      5.391885
  Au      6.920094      6.536010      5.572751
  Fe      7.293952      6.979585      8.136162
15
Coordinates from ORCA-job pbe E -3165.064377591179
  Au      7.511729      7.748882     10.635268
  Au      9.524958      7.086739      6.554998
  Au      7.875639     10.679987      6.693970
  Au      9.646453      6.468925      9.326298
  Au      6.102922      9.331529      8.333025
  Au      8.934038      9.122148      8.584216
  Au      5.679930      4.922415      7.657918
  Au      5.106587      6.914895      9.641818
  Au      8.398882      4.670260      7.560640
  Au      8.458133      8.657641      4.680526
  Au      7.264041     11.044788      4.045409
  Au      4.557944      7.401773      6.920663
  Au      5.698022      9.250088      5.395219
  Au      6.909304      6.542687      5.560456
  Fe      7.290994      6.991768      8.123818
15
Coordinates from ORCA-job pbe E -3165.064402738590
  Au      7.513549      7.747670     10.636826
  Au      9.523538      7.082536      6.557784
  Au      7.880505     10.679362      6.685851
  Au      9.634217      6.461328      9.329462
  Au      6.099026      9.341463      8.325350
  Au      8.930927      9.119243      8.588933
  Au      5.684991      4.921677      7.661733
  Au      5.111973      6.914047      9.644568
  Au      8.399811      4.669901      7.560005
  Au      8.460147      8.666590      4.681867
  Au      7.252939     11.028978      4.057844
  Au      4.570018      7.400879      6.924785
  Au      5.700917      9.251162      5.394161
  Au      6.907470      6.548671      5.550357
  Fe      7.289549      7.001019      8.114716
15
Coordinates from ORCA-job pbe E -3165.064481211968
  Au      7.510019      7.746297     10.636095
  Au      9.525341      7.084294      6.557765
  Au      7.882750     10.680238      6.688139
  Au      9.640564      6.464359      9.328321
  Au      6.101844      9.340393      8.330544
  Au      8.933102      9.119883      8.587927
  Au      5.681192      4.921915      7.663152
  Au      5.108953      6.911955      9.643454
  Au      8.395918      4.669588      7.560171
  Au      8.463063      8.665178      4.681654
  Au      7.250589     11.035188      4.051034
  Au      4.566727      7.400167      6.924345
  Au      5.699227      9.250989      5.393649
  Au      6.911143      6.544305      5.552150
  Fe      7.289146      6.999774      8.115842
15
Coordinates from ORCA-job pbe E -3165.064529206134
  Au      7.507144      7.743859     10.634093
  Au      9.526601      7.084967      6.558514
  Au      7.888060     10.679610      6.688121
  Au      9.642153      6.466454      9.326110
  Au      6.103395      9.343642      8.334072
  Au      8.933985      9.119723      8.589021
  Au      5.677925      4.920797      7.667738
  Au      5.106787      6.908002      9.644235
  Au      8.391575      4.671253      7.559737
  Au      8.467700      8.666384      4.683550
  Au      7.244835     11.036481      4.047899
  Au      4.568501      7.398919      6.925715
  Au      5.698638      9.249923      5.393708
  Au      6.915024      6.540980      5.549817
  Fe      7.287255      7.003532      8.111913
15
Coordinates from ORCA-job pbe E -3165.064585892925
  Au      7.502732      7.739005     10.629890
  Au      9.530390      7.085666      6.558712
  Au      7.896058     10.677546      6.685858
  Au      9.641488      6.466394      9.324660
  Au      6.105283      9.350939      8.338775
  Au      8.935597      9.121483      8.591394
  Au      5.672935      4.918481      7.676430
  Au      5.103478      6.901602      9.646157
  Au      8.383761      4.675124      7.558792
  Au      8.473681      8.670721      4.686717
  Au      7.235090     11.036067      4.045604
  Au      4.575791      7.396142      6.929628
  Au      5.698982      9.246793      5.395277
  Au      6.921372      6.535780      5.544124
  Fe      7.282940      7.012785      8.102225
15
Coordinates from ORCA-job pbe E -3165.064622924594
  Au      7.500652      7.735022     10.624672
  Au      9.532627      7.087297      6.558880
  Au      7.900317     10.674660      6.683310
  Au      9.638431      6.467363      9.321291
  Au      6.105219      9.357274      8.342808
  Au      8.936502      9.122042      8.594680
  Au      5.669657      4.914639      7.684201
  Au      5.100960      6.896550      9.649962
  Au      8.378260      4.680922      7.556864
  Au      8.475978      8.672891      4.690153
  Au      7.232086     11.034747      4.045317
  Au      4.583518      7.393714      6.933599
  Au      5.701464      9.243849      5.397041
  Au      6.925730      6.531324      5.539098
  Fe      7.278175      7.022229      8.092367
15
Coordinates from ORCA-job pbe E -3165.064649876167
  Au      7.499282      7.732639     10.619840
  Au      9.537153      7.088268      6.558784
  Au      7.899496     10.672029      6.682643
  Au      9.635483      6.465392      9.320903
  Au      6.105109      9.361739      8.347107
  Au      8.937864      9.125415      8.594825
  Au      5.666831      4.911346      7.690051
  Au      5.098271      6.894389      9.652916
  Au      8.373901      4.686029      7.554733
  Au      8.473949      8.674497      4.690109
  Au      7.232644     11.034444      4.047194
  Au      4.591617      7.391503      6.936638
  Au      5.705177      9.241193      5.399390
  Au      6.929138      6.525353      5.535476
  Fe      7.273662      7.030287      8.083632
15
Coordinates from ORCA-job pbe E -3165.064668089957
  Au      7.499185      7.731718     10.616558
  Au      9.538576      7.093315      6.557492
  Au      7.894624     10.671518      6.682373
  Au      9.633490      6.464883      9.319678
  Au      6.103258      9.363315      8.352700
  Au      8.940037      9.125509      8.597006
  Au      5.665907      4.908920      7.692639
  Au      5.096593      6.894571      9.655384
  Au      8.372388      4.690659      7.550940
  Au      8.469299      8.670358      4.689356
  Au      7.238899     11.033727      4.048244
  Au      4.596706      7.391051      6.938184
  Au      5.709389      9.239665      5.400406
  Au      6.930800      6.520125      5.534661
  Fe      7.270428      7.035193      8.078622
15
Coordinates from ORCA-job pbe E -3165.064683628874
  Au      7.499863      7.733699     10.614533
  Au      9.540153      7.095527      6.559346
  Au      7.887703     10.670781      6.686535
  Au      9.632409      6.464963      9.318478
  Au      6.101717      9.362699      8.357888
  Au      8.940854      9.125744      8.593984
  Au      5.666136      4.907812      7.693568
  Au      5.095866      6.897072      9.656434
  Au      8.373050      4.693405      7.547491
  Au      8.463562      8.665954      4.685736
  Au      7.246652     11.035388      4.050659
  Au      4.599263      7.391203      6.937261
  Au      5.712665      9.239823      5.400632
  Au      6.930870      6.513590      5.535101
  Fe      7.268813      7.036866      8.076594
15
Coordinates from ORCA-job pbe E -3165.064694435149
  Au      7.500469      7.735976     10.615129
  Au      9.540672      7.099519      6.559662
  Au      7.881781     10.672064      6.689645
  Au      9.631738      6.462264      9.320746
  Au      6.100617      9.361950      8.363377
  Au      8.942435      9.125229      8.592168
  Au      5.666882      4.909146      7.693223
  Au      5.095725      6.899968      9.655239
  Au      8.374743      4.693818      7.543678
  Au      8.459326      8.660873      4.681675
  Au      7.251150     11.036267      4.051372
  Au      4.600290      7.392365      6.935506
  Au      5.713666      9.240312      5.399858
  Au      6.931374      6.508200      5.535929
  Fe      7.268709      7.036574      8.077036
15
Coordinates from ORCA-job pbe E -3165.064698809694
  Au      7.500802      7.737486     10.615659
  Au      9.539928      7.101715      6.561090
  Au      7.880044     10.672229      6.691359
  Au      9.630134      6.460945      9.321294
  Au      6.100087      9.362704      8.366908
  Au      8.942516      9.123742      8.591202
  Au      5.667955      4.909863      7.694630
  Au      5.096322      6.900823      9.655004
  Au      8.375701      4.693985      7.540697
  Au      8.458335      8.658569      4.679948
  Au      7.252405     11.036777      4.051370
  Au      4.601183      7.393076      6.934253
  Au      5.713372      9.240876      5.398704
  Au      6.932223      6.504808      5.535296
  Fe      7.268571      7.036929      8.076827
15
Coordinates from ORCA-job pbe E -3165.064700435422
  Au      7.500467      7.738083     10.616082
  Au      9.539873      7.102918      6.561666
  Au      7.879933     10.671775      6.691311
  Au      9.628631      6.459501      9.321893
  Au      6.100330      9.363832      8.368847
  Au      8.942662      9.123329      8.591312
  Au      5.668291      4.910237      7.696518
  Au      5.096539      6.900765      9.654969
  Au      8.375666      4.693892      7.538556
  Au      8.458255      8.658393      4.679480
  Au      7.251707     11.036771      4.051161
  Au      4.602432      7.393280      6.933792
  Au      5.712916      9.240961      5.398013
  Au      6.933525      6.503177      5.534375
  Fe      7.268350      7.037612      8.076266
