11
E=  -1164.53866818;c=0;m=5
Au      7.002140967726210      6.831454302777260      7.543103540382070
Au      8.553877849556679      4.841223251607530      8.083681993679839
Au     10.175090980629010      2.724202504906290      8.164057718859690
Au      8.293219639107649      8.035781889523211      5.155746217532840
Au      6.080723882663180      9.150713017410609      6.376689304880490
Au      8.400662223329659      9.360232309319510      7.756222941693790
Au     10.584566006657280      6.711754175743680      5.016173698663610
Au     11.252999043386129      4.912235960541280      7.210823472724150
Au     12.358118016706721      7.316148266204330      7.162952253516610
Au     10.699685986126640      8.766692161068219      8.887158815713819
Fe      9.637015734110919      7.055136600897960      7.353518712353170
