11
Coordinates from ORCA-job pbe E -2621.739246898479
  Au      7.002141      6.831454      7.543104
  Au      8.553878      4.841223      8.083682
  Au     10.175091      2.724203      8.164058
  Au      8.293220      8.035782      5.155746
  Au      6.080724      9.150713      6.376689
  Au      8.400662      9.360232      7.756223
  Au     10.584566      6.711754      5.016174
  Au     11.252999      4.912236      7.210823
  Au     12.358118      7.316148      7.162952
  Au     10.699686      8.766692      8.887159
  Fe      9.637016      7.055137      7.353519
11
Coordinates from ORCA-job pbe E -2621.739563076168
  Au      6.962747      6.863447      7.542761
  Au      8.540012      4.807788      8.082115
  Au     10.232935      2.658071      8.214865
  Au      8.319400      8.041231      5.154579
  Au      6.057698      9.179868      6.356153
  Au      8.383470      9.382405      7.772056
  Au     10.560313      6.734626      4.994455
  Au     11.266262      4.898451      7.167601
  Au     12.359023      7.303613      7.201089
  Au     10.729204      8.780095      8.876714
  Fe      9.627037      7.055980      7.347741
11
Coordinates from ORCA-job pbe E -2621.740782485669
  Au      6.966821      6.845514      7.544060
  Au      8.532972      4.800900      8.065403
  Au     10.229111      2.716267      8.224296
  Au      8.308152      8.054061      5.165914
  Au      6.058725      9.163657      6.368187
  Au      8.384129      9.385179      7.774334
  Au     10.584440      6.728487      4.989538
  Au     11.251511      4.879798      7.147847
  Au     12.362293      7.286388      7.222216
  Au     10.734863      8.793104      8.867401
  Fe      9.625083      7.052217      7.340932
11
Coordinates from ORCA-job pbe E -2621.740946156101
  Au      6.988566      6.813050      7.553292
  Au      8.515239      4.812475      8.060778
  Au     10.191695      2.719137      8.215318
  Au      8.315397      8.054555      5.187414
  Au      6.071895      9.127108      6.386350
  Au      8.386141      9.388827      7.774919
  Au     10.606793      6.733808      4.993419
  Au     11.249426      4.885012      7.123474
  Au     12.360092      7.267802      7.243500
  Au     10.727742      8.845843      8.835357
  Fe      9.625114      7.057958      7.336307
11
Coordinates from ORCA-job pbe E -2621.741484021995
  Au      6.975833      6.823328      7.558139
  Au      8.523724      4.793099      8.070612
  Au     10.192733      2.718535      8.200801
  Au      8.330679      8.042615      5.196047
  Au      6.073516      9.128795      6.381255
  Au      8.376194      9.392184      7.784688
  Au     10.612526      6.737049      4.999581
  Au     11.238518      4.869467      7.107806
  Au     12.356316      7.269314      7.263094
  Au     10.737461      8.874657      8.810327
  Fe      9.620599      7.056532      7.337777
11
Coordinates from ORCA-job pbe E -2621.741683063680
  Au      6.967415      6.827292      7.576461
  Au      8.521937      4.784942      8.073880
  Au     10.214221      2.691082      8.191982
  Au      8.336990      8.050259      5.196536
  Au      6.048408      9.137095      6.367782
  Au      8.359855      9.408131      7.789397
  Au     10.635500      6.734783      5.011625
  Au     11.225587      4.851691      7.088953
  Au     12.351036      7.257112      7.286993
  Au     10.761505      8.904328      8.785792
  Fe      9.615647      7.058860      7.340728
11
Coordinates from ORCA-job pbe E -2621.741904247936
  Au      6.970809      6.830164      7.584671
  Au      8.520516      4.781905      8.069285
  Au     10.207155      2.685765      8.189940
  Au      8.350041      8.051870      5.207295
  Au      6.056709      9.114697      6.374068
  Au      8.350012      9.408301      7.790463
  Au     10.646349      6.747012      5.018108
  Au     11.213301      4.846548      7.073123
  Au     12.348059      7.240308      7.300148
  Au     10.762794      8.936947      8.760888
  Fe      9.612356      7.062058      7.342141
11
Coordinates from ORCA-job pbe E -2621.741987992228
  Au      6.984097      6.821003      7.610930
  Au      8.528301      4.781386      8.074555
  Au     10.174679      2.674188      8.163682
  Au      8.371120      8.048963      5.212579
  Au      6.045619      9.087511      6.374143
  Au      8.344803      9.409554      7.794616
  Au     10.664313      6.765924      5.030076
  Au     11.199084      4.838198      7.059748
  Au     12.350984      7.221083      7.325933
  Au     10.761888      8.990495      8.714673
  Fe      9.613212      7.067270      7.349195
11
Coordinates from ORCA-job pbe E -2621.742111409040
  Au      6.987852      6.826168      7.621759
  Au      8.533113      4.782092      8.082605
  Au     10.169158      2.654136      8.148028
  Au      8.367308      8.054731      5.212336
  Au      6.048327      9.078857      6.372360
  Au      8.333825      9.410406      7.787595
  Au     10.673725      6.771319      5.036960
  Au     11.194571      4.833205      7.059768
  Au     12.350209      7.218915      7.337637
  Au     10.767318      9.005346      8.696056
  Fe      9.612694      7.070400      7.355025
11
Coordinates from ORCA-job pbe E -2621.742161541557
  Au      6.987898      6.831071      7.628717
  Au      8.535022      4.782235      8.083278
  Au     10.180850      2.651634      8.145021
  Au      8.366807      8.062838      5.208627
  Au      6.042164      9.076650      6.365999
  Au      8.328357      9.412092      7.783653
  Au     10.673783      6.781152      5.041867
  Au     11.190576      4.830475      7.061377
  Au     12.347927      7.200944      7.343092
  Au     10.772967      9.005098      8.687174
  Fe      9.611749      7.071385      7.361324
11
Coordinates from ORCA-job pbe E -2621.742205516379
  Au      6.991661      6.830558      7.634832
  Au      8.538217      4.782843      8.088823
  Au     10.172334      2.642538      8.136706
  Au      8.366384      8.067108      5.207660
  Au      6.034888      9.067937      6.365516
  Au      8.326657      9.414389      7.778256
  Au     10.678680      6.792021      5.047199
  Au     11.187263      4.823625      7.059479
  Au     12.354778      7.197090      7.352845
  Au     10.773779      9.014011      8.671844
  Fe      9.613459      7.073456      7.366970
11
Coordinates from ORCA-job pbe E -2621.742236237284
  Au      6.994160      6.826660      7.636221
  Au      8.542200      4.780988      8.096222
  Au     10.161623      2.638546      8.128065
  Au      8.365270      8.067944      5.208165
  Au      6.028456      9.063665      6.366912
  Au      8.324983      9.417559      7.772070
  Au     10.683265      6.802114      5.055179
  Au     11.186921      4.822295      7.057552
  Au     12.361674      7.191529      7.359897
  Au     10.773845      9.019850      8.656512
  Fe      9.615703      7.074425      7.373333
11
Coordinates from ORCA-job pbe E -2621.742259489946
  Au      6.993608      6.824294      7.631773
  Au      8.538736      4.779279      8.095452
  Au     10.165982      2.641180      8.132662
  Au      8.364782      8.068353      5.211387
  Au      6.026325      9.064045      6.368873
  Au      8.325294      9.420684      7.768104
  Au     10.682070      6.811127      5.060141
  Au     11.184430      4.819216      7.051603
  Au     12.367465      7.186230      7.364098
  Au     10.773811      9.017684      8.648623
  Fe      9.615598      7.073484      7.377411
11
Coordinates from ORCA-job pbe E -2621.742277853250
  Au      6.990924      6.824258      7.625043
  Au      8.534662      4.776381      8.094389
  Au     10.169863      2.643968      8.135775
  Au      8.361665      8.066669      5.216277
  Au      6.023090      9.062688      6.370235
  Au      8.327718      9.425336      7.764948
  Au     10.683454      6.816930      5.066753
  Au     11.182714      4.820771      7.045566
  Au     12.373081      7.180310      7.366050
  Au     10.775422      9.016110      8.642653
  Fe      9.615508      7.072155      7.382439
11
Coordinates from ORCA-job pbe E -2621.742289002258
  Au      6.990851      6.823119      7.625112
  Au      8.532157      4.774944      8.093425
  Au     10.168745      2.644422      8.130807
  Au      8.360911      8.060696      5.219799
  Au      6.022729      9.062079      6.371382
  Au      8.325661      9.428544      7.761194
  Au     10.685148      6.819416      5.071134
  Au     11.180968      4.823005      7.043979
  Au     12.376284      7.178660      7.370016
  Au     10.779425      9.019635      8.636355
  Fe      9.615221      7.071056      7.386925
11
Coordinates from ORCA-job pbe E -2621.742299312110
  Au      6.990038      6.824534      7.627306
  Au      8.530118      4.773072      8.090368
  Au     10.170860      2.642269      8.127347
  Au      8.358196      8.054927      5.221703
  Au      6.023554      9.063829      6.371320
  Au      8.326625      9.429643      7.758852
  Au     10.687672      6.821328      5.073949
  Au     11.178701      4.824298      7.043145
  Au     12.377312      7.177681      7.373430
  Au     10.780647      9.024518      8.631340
  Fe      9.614377      7.069476      7.391370
11
Coordinates from ORCA-job pbe E -2621.742308441578
  Au      6.989937      6.827347      7.632606
  Au      8.528142      4.772685      8.087168
  Au     10.166945      2.639478      8.117630
  Au      8.355567      8.046612      5.222467
  Au      6.022022      9.060904      6.371012
  Au      8.329846      9.430719      7.753947
  Au     10.689811      6.822389      5.076191
  Au     11.178555      4.826689      7.046913
  Au     12.378654      7.180289      7.376088
  Au     10.783781      9.030339      8.628647
  Fe      9.614838      7.068123      7.397458
11
Coordinates from ORCA-job pbe E -2621.742311655813
  Au      6.989693      6.828030      7.635390
  Au      8.527774      4.772060      8.085776
  Au     10.164586      2.638454      8.112831
  Au      8.353903      8.042382      5.221768
  Au      6.022467      9.062315      6.371008
  Au      8.332226      9.430316      7.750558
  Au     10.689272      6.821933      5.076621
  Au     11.181032      4.827512      7.050790
  Au     12.378382      7.183154      7.374823
  Au     10.783433      9.032295      8.630468
  Fe      9.615333      7.067122      7.400096
11
Coordinates from ORCA-job pbe E -2621.742312777344
  Au      6.989762      6.828301      7.636416
  Au      8.527519      4.771901      8.084806
  Au     10.162943      2.638223      8.111283
  Au      8.353559      8.041882      5.221110
  Au      6.022130      9.061669      6.371667
  Au      8.333673      9.430350      7.748468
  Au     10.688611      6.821764      5.076899
  Au     11.183011      4.827039      7.052738
  Au     12.377614      7.184451      7.373845
  Au     10.783416      9.033112      8.632025
  Fe      9.615862      7.066884      7.400872
11
Coordinates from ORCA-job pbe E -2621.742313314787
  Au      6.989877      6.828196      7.636510
  Au      8.527556      4.771606      8.084420
  Au     10.162749      2.638091      8.111101
  Au      8.353427      8.042387      5.220853
  Au      6.022225      9.061814      6.371986
  Au      8.334218      9.430548      7.747540
  Au     10.687750      6.821280      5.077246
  Au     11.184208      4.826437      7.053060
  Au     12.376678      7.184855      7.373716
  Au     10.783326      9.033607      8.632733
  Fe      9.616086      7.066753      7.400963
