17
E=  -1798.97938505;c=0;m=4
Au      4.710260847884070      5.279880007599880      6.317072634284850
Au      3.852745177545240      7.433830644336380      8.072933607016230
Au      7.122949651433240      8.911856231198930      5.143908407539110
Au      6.657122621797050      6.275000035373880      4.526417800120550
Au      7.375486411634310      4.790919108871920      6.842372518686440
Au      9.075519574290629      6.951908075324750      5.763260893356540
Au      9.210586776693010      9.635912205005800      6.856415330689980
Au      4.488777508682630      8.033616230723389      5.408743399180790
Au      6.812702514900790     11.158974251528390      6.678695961399880
Au     10.449030861416331      7.565098146616400      8.199651533431650
Au      8.227249735322729      6.149750967685370      9.323928827005041
Au      5.588786270668420      5.269170800917020      9.004974778156820
Au     10.031514368907949      4.900397782636980      7.500082468585230
Au      6.019267029367270      7.870828861764200      9.775163982152510
Au      6.190987316132440     10.566046703738269      9.317351907292251
Au      8.561822156083441      9.016980795921080      9.599178057926000
Mn      5.464153737238920      9.194244090761391      7.378437743177210
