17
E=  -1788.61896185;c=0;m=3
Au      4.656204833345680      6.286964965577930      8.508659110530560
Au      7.263761026621720      6.926476234969050      9.525352968383711
Au      6.908916251090270      4.775315740999800      7.614028779270820
Au      9.219490558588131      6.338692610854720      7.436169723082520
Au      7.756441891144420      5.823736948727790      5.076258176602600
Au      4.900125546083710      5.710048328564160      5.638170281661010
Au      4.171115076344220      8.430080704074330      6.476235548396460
Au      5.381121105732040      8.963487025916191      8.953777301696460
Au      9.223359694331020     10.824914351838030      6.897931655875030
Au     10.944016587653300      8.538181133057011      7.177813667619210
Au      8.742658966227911      8.445002655642190      5.438989712187620
Au      6.151802794444460      8.120976388901051      4.440834395714700
Au      6.566426540916670     10.007554226616040      6.603217875293140
Au      7.937930708985560      9.882269750966120      9.313218875562210
Au      9.906446783194470      7.808184851818430      9.758431853555670
Au     10.626452452626120     10.489495654174871      9.311686639800770
Cr      6.557098222670270      7.315296167302160      6.935264284767440
