17
Coordinates from ORCA-job pbe E -3217.495803946947
  Au      4.656205      6.286965      8.508659
  Au      7.263761      6.926476      9.525353
  Au      6.908916      4.775316      7.614029
  Au      9.219491      6.338693      7.436170
  Au      7.756442      5.823737      5.076258
  Au      4.900126      5.710048      5.638170
  Au      4.171115      8.430081      6.476236
  Au      5.381121      8.963487      8.953777
  Au      9.223360     10.824914      6.897932
  Au     10.944017      8.538181      7.177814
  Au      8.742659      8.445003      5.438990
  Au      6.151803      8.120976      4.440834
  Au      6.566427     10.007554      6.603218
  Au      7.937931      9.882270      9.313219
  Au      9.906447      7.808185      9.758432
  Au     10.626452     10.489496      9.311687
  Cr      6.557098      7.315296      6.935264
17
Coordinates from ORCA-job pbe E -3217.498227062759
  Au      4.669029      6.294807      8.527448
  Au      7.277598      6.936254      9.526460
  Au      6.928408      4.770567      7.625838
  Au      9.215691      6.352135      7.437369
  Au      7.774213      5.826615      5.074314
  Au      4.904242      5.714865      5.642389
  Au      4.180496      8.450447      6.482702
  Au      5.401999      8.962689      8.947657
  Au      9.198847     10.792844      6.904319
  Au     10.899413      8.528803      7.178805
  Au      8.741931      8.444762      5.452787
  Au      6.166196      8.137298      4.432911
  Au      6.581458     10.011682      6.609615
  Au      7.931326      9.861080      9.292365
  Au      9.873688      7.809722      9.733791
  Au     10.596398     10.468236      9.296732
  Cr      6.572436      7.323873      6.940540
17
Coordinates from ORCA-job pbe E -3217.499270070177
  Au      4.678174      6.289102      8.540949
  Au      7.286889      6.939919      9.546247
  Au      6.936515      4.758200      7.634072
  Au      9.227015      6.342137      7.436004
  Au      7.770279      5.817684      5.064747
  Au      4.905087      5.724362      5.652400
  Au      4.184109      8.464711      6.476738
  Au      5.393584      8.957147      8.943527
  Au      9.181690     10.780178      6.910020
  Au     10.880797      8.524132      7.178774
  Au      8.750444      8.445926      5.439912
  Au      6.168324      8.148399      4.419981
  Au      6.586738     10.033097      6.612528
  Au      7.919860      9.842998      9.275736
  Au      9.851590      7.812329      9.727518
  Au     10.608021     10.476475      9.302992
  Cr      6.584253      7.329881      6.943896
17
Coordinates from ORCA-job pbe E -3217.500253304870
  Au      4.693946      6.270710      8.545971
  Au      7.282508      6.939355      9.571750
  Au      6.950496      4.760004      7.643046
  Au      9.229233      6.325758      7.431348
  Au      7.763723      5.822186      5.070102
  Au      4.913330      5.742922      5.670096
  Au      4.193000      8.472384      6.456397
  Au      5.368326      8.947637      8.938797
  Au      9.176737     10.760138      6.927186
  Au     10.855826      8.521924      7.183048
  Au      8.749544      8.441397      5.422257
  Au      6.179258      8.161816      4.419878
  Au      6.577406     10.057142      6.615503
  Au      7.923267      9.820273      9.250096
  Au      9.837450      7.829051      9.712307
  Au     10.621645     10.473176      9.296112
  Cr      6.597672      7.340804      6.952148
17
Coordinates from ORCA-job pbe E -3217.500943172071
  Au      4.715975      6.255067      8.554540
  Au      7.268636      6.928166      9.591080
  Au      6.963532      4.764556      7.653328
  Au      9.238321      6.304334      7.424224
  Au      7.744825      5.821184      5.073513
  Au      4.911688      5.765133      5.694110
  Au      4.207901      8.484833      6.437060
  Au      5.359771      8.938749      8.930648
  Au      9.169778     10.752156      6.933653
  Au     10.847549      8.520885      7.184699
  Au      8.755458      8.436442      5.397661
  Au      6.189832      8.176494      4.422948
  Au      6.557763     10.073208      6.610132
  Au      7.903572      9.790962      9.222935
  Au      9.827273      7.834115      9.707486
  Au     10.637085     10.485907      9.305427
  Cr      6.614411      7.354487      6.962596
17
Coordinates from ORCA-job pbe E -3217.501320463858
  Au      4.721177      6.236018      8.558493
  Au      7.259366      6.914456      9.610372
  Au      6.969549      4.765591      7.660845
  Au      9.253225      6.298969      7.424922
  Au      7.727422      5.821936      5.078821
  Au      4.910140      5.778817      5.709240
  Au      4.207726      8.490091      6.417455
  Au      5.323870      8.928248      8.928139
  Au      9.175125     10.747830      6.935458
  Au     10.846582      8.519807      7.184389
  Au      8.769455      8.440368      5.388372
  Au      6.194253      8.186924      4.424206
  Au      6.541098     10.089860      6.601165
  Au      7.906210      9.771011      9.200667
  Au      9.830914      7.837771      9.702592
  Au     10.650160     10.489312      9.305201
  Cr      6.627099      7.369667      6.975703
17
Coordinates from ORCA-job pbe E -3217.501763764568
  Au      4.724919      6.223619      8.562415
  Au      7.260722      6.903888      9.622642
  Au      6.977619      4.769965      7.664077
  Au      9.258368      6.290204      7.418430
  Au      7.715209      5.828371      5.088400
  Au      4.906056      5.795441      5.728022
  Au      4.207745      8.495635      6.404805
  Au      5.309961      8.921978      8.925243
  Au      9.169354     10.749313      6.932337
  Au     10.853679      8.520593      7.183998
  Au      8.774883      8.434750      5.378037
  Au      6.203233      8.193430      4.427982
  Au      6.536767     10.101993      6.592704
  Au      7.899713      9.744946      9.174276
  Au      9.826765      7.834521      9.705290
  Au     10.641746     10.489917      9.306617
  Cr      6.646629      7.388115      6.990765
17
Coordinates from ORCA-job pbe E -3217.502456285284
  Au      4.724828      6.218713      8.567058
  Au      7.261582      6.889187      9.628123
  Au      6.979369      4.777939      7.664304
  Au      9.269639      6.296938      7.413564
  Au      7.702270      5.838151      5.101376
  Au      4.902763      5.813717      5.748776
  Au      4.204934      8.500770      6.400126
  Au      5.295804      8.910797      8.917651
  Au      9.167245     10.755538      6.917551
  Au     10.869785      8.523685      7.183821
  Au      8.789487      8.431984      5.381979
  Au      6.207876      8.194779      4.435934
  Au      6.532300     10.108218      6.579515
  Au      7.886721      9.709044      9.139764
  Au      9.829214      7.820720      9.710701
  Au     10.617504     10.480483      9.301490
  Cr      6.672049      7.416013      7.014309
17
Coordinates from ORCA-job pbe E -3217.502921881519
  Au      4.717807      6.214292      8.568284
  Au      7.261337      6.876616      9.633575
  Au      6.979175      4.785041      7.661563
  Au      9.274263      6.309522      7.412133
  Au      7.703074      5.845775      5.108435
  Au      4.906747      5.825214      5.760185
  Au      4.196976      8.500263      6.397251
  Au      5.281763      8.912430      8.922275
  Au      9.167459     10.763696      6.898609
  Au     10.882986      8.526740      7.183810
  Au      8.797023      8.431069      5.393545
  Au      6.210402      8.191358      4.442720
  Au      6.527937     10.114562      6.568495
  Au      7.880586      9.678398      9.109086
  Au      9.835588      7.802303      9.717044
  Au     10.594919     10.465260      9.290619
  Cr      6.695325      7.444139      7.038414
17
Coordinates from ORCA-job pbe E -3217.503096902291
  Au      4.721917      6.216836      8.573421
  Au      7.261183      6.867507      9.641297
  Au      6.978264      4.787597      7.660876
  Au      9.279611      6.309496      7.408992
  Au      7.695063      5.843483      5.108239
  Au      4.910456      5.835031      5.769957
  Au      4.200363      8.505670      6.398846
  Au      5.269291      8.906099      8.918634
  Au      9.165542     10.767891      6.892584
  Au     10.888001      8.532609      7.188458
  Au      8.802967      8.429762      5.391708
  Au      6.210157      8.190078      4.445076
  Au      6.523522     10.122507      6.560308
  Au      7.879112      9.654653      9.084220
  Au      9.835505      7.795627      9.721012
  Au     10.581921     10.461513      9.290728
  Cr      6.710494      7.460317      7.051685
17
Coordinates from ORCA-job pbe E -3217.503274158945
  Au      4.721757      6.218864      8.573417
  Au      7.257682      6.858480      9.651495
  Au      6.976768      4.791528      7.657819
  Au      9.279519      6.312908      7.405905
  Au      7.699591      5.845168      5.109530
  Au      4.922637      5.840837      5.773221
  Au      4.201159      8.505439      6.400587
  Au      5.260179      8.912116      8.927288
  Au      9.163544     10.773316      6.880460
  Au     10.885062      8.534293      7.189930
  Au      8.803704      8.427339      5.394309
  Au      6.210491      8.185456      4.448380
  Au      6.515791     10.131980      6.552846
  Au      7.880809      9.632872      9.060502
  Au      9.837505      7.782585      9.725328
  Au     10.572754     10.456572      9.289416
  Cr      6.724418      7.476924      7.065608
17
Coordinates from ORCA-job pbe E -3217.503448713850
  Au      4.724233      6.233192      8.575391
  Au      7.252129      6.849024      9.662906
  Au      6.968081      4.792810      7.650845
  Au      9.277408      6.311464      7.404191
  Au      7.711464      5.839758      5.102404
  Au      4.942645      5.839648      5.766994
  Au      4.207759      8.507960      6.413916
  Au      5.259433      8.924428      8.940732
  Au      9.160568     10.782826      6.869540
  Au     10.873889      8.541704      7.197949
  Au      8.800580      8.426863      5.392233
  Au      6.203843      8.173654      4.449813
  Au      6.506327     10.141761      6.544495
  Au      7.889747      9.609089      9.032956
  Au      9.839525      7.769172      9.733030
  Au     10.561484     10.453559      9.292259
  Cr      6.734254      7.489766      7.076390
17
Coordinates from ORCA-job pbe E -3217.503556601035
  Au      4.716912      6.243885      8.562446
  Au      7.248020      6.843562      9.672191
  Au      6.966966      4.798024      7.649260
  Au      9.275888      6.306058      7.407131
  Au      7.721928      5.842846      5.103793
  Au      4.956419      5.843837      5.768180
  Au      4.206769      8.494087      6.425280
  Au      5.259942      8.932135      8.949082
  Au      9.158545     10.789310      6.859541
  Au     10.861897      8.543046      7.200996
  Au      8.796933      8.430336      5.386929
  Au      6.203989      8.169788      4.454314
  Au      6.499710     10.149801      6.539673
  Au      7.897164      9.589301      9.010251
  Au      9.841271      7.757606      9.737728
  Au     10.558710     10.451456      9.292471
  Cr      6.742306      7.501599      7.086775
17
Coordinates from ORCA-job pbe E -3217.503656971336
  Au      4.711082      6.259540      8.552080
  Au      7.242261      6.838723      9.675296
  Au      6.959001      4.800428      7.647873
  Au      9.275257      6.299820      7.412289
  Au      7.739094      5.846761      5.104125
  Au      4.969818      5.836536      5.757284
  Au      4.207972      8.483562      6.441543
  Au      5.271114      8.945257      8.960843
  Au      9.157123     10.799835      6.851251
  Au     10.842505      8.544578      7.205983
  Au      8.792787      8.436254      5.381293
  Au      6.196818      8.164247      4.457756
  Au      6.494067     10.150946      6.534442
  Au      7.910876      9.574919      8.991817
  Au      9.844653      7.747508      9.745728
  Au     10.558336     10.453146      9.296001
  Cr      6.740603      7.504618      7.090437
17
Coordinates from ORCA-job pbe E -3217.503730163568
  Au      4.701762      6.272418      8.542527
  Au      7.241045      6.834299      9.673258
  Au      6.954829      4.801639      7.649957
  Au      9.277317      6.293308      7.417623
  Au      7.744080      5.852105      5.108583
  Au      4.975457      5.829093      5.748221
  Au      4.203932      8.471870      6.456017
  Au      5.282508      8.952107      8.965794
  Au      9.157796     10.811033      6.846662
  Au     10.828920      8.547405      7.212114
  Au      8.792294      8.443159      5.375639
  Au      6.191807      8.164602      4.459671
  Au      6.493633     10.148249      6.528259
  Au      7.923159      9.562382      8.975980
  Au      9.848357      7.742166      9.754901
  Au     10.557271     10.454940      9.298537
  Cr      6.739204      7.505903      7.092298
17
Coordinates from ORCA-job pbe E -3217.503781545484
  Au      4.697490      6.277654      8.536804
  Au      7.242862      6.831519      9.667309
  Au      6.950655      4.799932      7.654334
  Au      9.279238      6.290465      7.423050
  Au      7.743512      5.858910      5.114508
  Au      4.974366      5.820720      5.740090
  Au      4.203006      8.466367      6.462398
  Au      5.291573      8.954471      8.965830
  Au      9.158469     10.821125      6.845456
  Au     10.815879      8.547928      7.216973
  Au      8.790812      8.448365      5.373988
  Au      6.186877      8.168756      4.460118
  Au      6.497138     10.141870      6.524043
  Au      7.934279      9.557602      8.967934
  Au      9.851992      7.741016      9.763808
  Au     10.561199     10.459343      9.300656
  Cr      6.734022      7.500634      7.088744
17
Coordinates from ORCA-job pbe E -3217.503817257911
  Au      4.695957      6.280305      8.534649
  Au      7.246437      6.828711      9.664145
  Au      6.950118      4.797907      7.658357
  Au      9.278006      6.288370      7.425045
  Au      7.738436      5.862063      5.119404
  Au      4.971689      5.818668      5.738400
  Au      4.200424      8.460441      6.465139
  Au      5.296677      8.954278      8.963929
  Au      9.160717     10.831259      6.844619
  Au     10.807586      8.551155      7.222900
  Au      8.791313      8.452655      5.373817
  Au      6.183086      8.172620      4.457522
  Au      6.500746     10.140290      6.518792
  Au      7.941220      9.548771      8.957752
  Au      9.854188      7.739690      9.772966
  Au     10.561774     10.460225      9.301571
  Cr      6.734995      7.499269      7.087032
17
Coordinates from ORCA-job pbe E -3217.503857910513
  Au      4.695454      6.280100      8.532366
  Au      7.252265      6.823466      9.662955
  Au      6.947817      4.790707      7.662067
  Au      9.277315      6.289190      7.430027
  Au      7.731046      5.865655      5.122414
  Au      4.967454      5.817751      5.739119
  Au      4.203179      8.461052      6.464647
  Au      5.300852      8.952830      8.960071
  Au      9.160322     10.845267      6.842917
  Au     10.795261      8.554741      7.231479
  Au      8.785093      8.454557      5.376137
  Au      6.181184      8.177754      4.453700
  Au      6.505975     10.139122      6.514404
  Au      7.949282      9.537751      8.942847
  Au      9.860084      7.738650      9.786358
  Au     10.563462     10.462714      9.300607
  Cr      6.737324      7.495371      7.083926
17
Coordinates from ORCA-job pbe E -3217.503889370660
  Au      4.704355      6.278013      8.537216
  Au      7.256403      6.822188      9.663062
  Au      6.948404      4.785769      7.663564
  Au      9.268063      6.290813      7.432459
  Au      7.728280      5.864268      5.123234
  Au      4.964243      5.819108      5.741141
  Au      4.206999      8.462828      6.460174
  Au      5.303098      8.952045      8.957653
  Au      9.162479     10.858395      6.841638
  Au     10.782206      8.557497      7.237114
  Au      8.780162      8.459269      5.381139
  Au      6.177108      8.178133      4.446417
  Au      6.508280     10.141687      6.510366
  Au      7.956328      9.527258      8.932122
  Au      9.861586      7.735964      9.798481
  Au     10.567017     10.462675      9.301696
  Cr      6.738358      7.490768      7.078562
17
Coordinates from ORCA-job pbe E -3217.503905425813
  Au      4.706219      6.277873      8.538571
  Au      7.255350      6.820625      9.666938
  Au      6.948289      4.783773      7.661068
  Au      9.266978      6.291067      7.434065
  Au      7.729668      5.861957      5.120090
  Au      4.965145      5.822788      5.744773
  Au      4.209742      8.466453      6.459126
  Au      5.303158      8.952729      8.958138
  Au      9.160478     10.860885      6.840471
  Au     10.780108      8.558550      7.238194
  Au      8.776923      8.459145      5.381967
  Au      6.178872      8.175895      4.444908
  Au      6.506433     10.144889      6.510950
  Au      7.956891      9.521465      8.925114
  Au      9.863268      7.734859      9.801433
  Au     10.565071     10.462217      9.301059
  Cr      6.740773      7.491507      7.079174
17
Coordinates from ORCA-job pbe E -3217.503912452747
  Au      4.707007      6.277818      8.540369
  Au      7.254289      6.821297      9.668688
  Au      6.948996      4.783505      7.658666
  Au      9.266340      6.291927      7.436069
  Au      7.732593      5.861473      5.118985
  Au      4.965912      5.824189      5.746483
  Au      4.210697      8.469679      6.458512
  Au      5.303240      8.953161      8.958520
  Au      9.159866     10.862313      6.839761
  Au     10.779543      8.557733      7.237627
  Au      8.774598      8.460136      5.381826
  Au      6.180062      8.173036      4.444298
  Au      6.503762     10.146289      6.511570
  Au      7.958242      9.517770      8.921736
  Au      9.863641      7.733842      9.802473
  Au     10.564643     10.461533      9.301744
  Cr      6.739938      7.490978      7.078712
17
Coordinates from ORCA-job pbe E -3217.503916657587
  Au      4.706928      6.277676      8.541951
  Au      7.252949      6.820776      9.669345
  Au      6.948574      4.783377      7.656634
  Au      9.265839      6.291433      7.438254
  Au      7.735120      5.861978      5.119403
  Au      4.965489      5.825592      5.747541
  Au      4.210431      8.471951      6.458054
  Au      5.304137      8.953361      8.958570
  Au      9.158698     10.863470      6.839166
  Au     10.779399      8.558256      7.236629
  Au      8.774336      8.462089      5.382997
  Au      6.181023      8.171176      4.444083
  Au      6.503117     10.146431      6.512561
  Au      7.960249      9.514198      8.916988
  Au      9.865437      7.733349      9.804389
  Au     10.563610     10.461969      9.301597
  Cr      6.738034      7.489595      7.077879
17
Coordinates from ORCA-job pbe E -3217.503919951541
  Au      4.706264      6.277886      8.543179
  Au      7.253466      6.820951      9.668588
  Au      6.948864      4.783985      7.656462
  Au      9.266552      6.292585      7.439617
  Au      7.736130      5.863181      5.120599
  Au      4.964496      5.826192      5.748648
  Au      4.208957      8.472524      6.458023
  Au      5.304684      8.953190      8.957899
  Au      9.159297     10.865312      6.838922
  Au     10.780331      8.558310      7.237158
  Au      8.774484      8.463478      5.382875
  Au      6.180687      8.170277      4.444116
  Au      6.502343     10.146302      6.511577
  Au      7.962078      9.509738      8.913016
  Au      9.865939      7.732555      9.805527
  Au     10.562413     10.461343      9.302699
  Cr      6.736383      7.488870      7.077138
