15
E=  -1571.10085689;c=0;m=3
Au      7.955996553760030      7.786778926322970      5.311073233136070
Au     10.697871305769690      6.468166420619360      5.451699780402210
Au      6.014636507198160      9.660917154054140      6.468111942778220
Au      6.118481602938420      6.841334061083590      7.326906609918970
Au      8.420535008237090     10.583551927675460      5.718594948437580
Au     10.497011351594971      9.057465844580859      4.533185265358740
Au     11.046109900590320     10.814391134899390      6.660118120032780
Au      4.209161264782740      8.584890030740659      8.210468742587141
Au      8.629782615537311      5.870083262990530      7.313377489893890
Au     11.227717521218951      6.314405378545800      8.213778243290591
Au      6.732784050932320      8.971298645805060      9.206033542042279
Au      9.161949925355330      7.709217028985010      9.494989076983639
Au     11.695652495688901      9.038905954216570      8.726055049214439
Au      9.010505540210991     10.374970910901339      8.545641484518709
Cr      9.916115156184860      8.390892938579221      7.005160151404730
