15
Coordinates from ORCA-job pbe E -2945.826860152386
  Au      7.955997      7.786779      5.311073
  Au     10.697871      6.468166      5.451700
  Au      6.014637      9.660917      6.468112
  Au      6.118482      6.841334      7.326907
  Au      8.420535     10.583552      5.718595
  Au     10.497011      9.057466      4.533185
  Au     11.046110     10.814391      6.660118
  Au      4.209161      8.584890      8.210469
  Au      8.629783      5.870083      7.313377
  Au     11.227718      6.314405      8.213778
  Au      6.732784      8.971299      9.206034
  Au      9.161950      7.709217      9.494989
  Au     11.695652      9.038906      8.726055
  Au      9.010506     10.374971      8.545641
  Cr      9.916115      8.390893      7.005160
15
Coordinates from ORCA-job pbe E -2945.828568645793
  Au      7.940811      7.789865      5.321716
  Au     10.681041      6.446649      5.442811
  Au      6.054832      9.657390      6.466337
  Au      6.160549      6.851044      7.320596
  Au      8.399565     10.576029      5.724275
  Au     10.475819      9.064109      4.519193
  Au     11.033277     10.831146      6.661482
  Au      4.260428      8.582112      8.199840
  Au      8.613743      5.882702      7.308550
  Au     11.219532      6.301221      8.231425
  Au      6.770452      8.965891      9.183085
  Au      9.143330      7.709024      9.500941
  Au     11.694275      9.043632      8.745119
  Au      8.989670     10.375274      8.549903
  Cr      9.896985      8.391182      7.009922
15
Coordinates from ORCA-job pbe E -2945.829358472995
  Au      7.919304      7.793691      5.322273
  Au     10.678614      6.432950      5.430769
  Au      6.053120      9.664364      6.466816
  Au      6.159231      6.853056      7.321714
  Au      8.409203     10.584200      5.719869
  Au     10.470172      9.062190      4.504942
  Au     11.042327     10.840095      6.664474
  Au      4.236947      8.582765      8.201627
  Au      8.641706      5.870535      7.307775
  Au     11.222846      6.297581      8.243086
  Au      6.769398      8.958922      9.166461
  Au      9.150644      7.691480      9.514591
  Au     11.703878      9.048154      8.757635
  Au      8.989705     10.395666      8.549319
  Cr      9.887214      8.391619      7.013845
15
Coordinates from ORCA-job pbe E -2945.829959888680
  Au      7.901602      7.800319      5.317485
  Au     10.669669      6.436042      5.429241
  Au      6.053122      9.665360      6.474913
  Au      6.172755      6.850557      7.326947
  Au      8.435445     10.590491      5.715038
  Au     10.462516      9.053734      4.507576
  Au     11.046907     10.830833      6.669198
  Au      4.240142      8.573204      8.205747
  Au      8.643458      5.866333      7.304012
  Au     11.222594      6.310362      8.245342
  Au      6.785612      8.944502      9.141031
  Au      9.150628      7.686975      9.521038
  Au     11.687890      9.048874      8.766367
  Au      8.995827     10.414898      8.542978
  Cr      9.866144      8.394785      7.018281
15
Coordinates from ORCA-job pbe E -2945.830587219803
  Au      7.878613      7.802328      5.310611
  Au     10.661416      6.447813      5.434184
  Au      6.070416      9.679215      6.468222
  Au      6.180100      6.842516      7.332764
  Au      8.447838     10.588724      5.712774
  Au     10.441346      9.039503      4.516603
  Au     11.052132     10.815810      6.678430
  Au      4.242390      8.583580      8.198695
  Au      8.655268      5.844439      7.300613
  Au     11.242042      6.330144      8.230882
  Au      6.815787      8.938866      9.110901
  Au      9.166510      7.676740      9.535574
  Au     11.657265      9.054129      8.775162
  Au      8.993281     10.428159      8.551166
  Cr      9.829908      8.395303      7.028613
15
Coordinates from ORCA-job pbe E -2945.831093892785
  Au      7.860598      7.804178      5.302341
  Au     10.648917      6.454223      5.445295
  Au      6.072585      9.687871      6.468705
  Au      6.184309      6.830002      7.340361
  Au      8.453904     10.596908      5.712513
  Au     10.427912      9.027912      4.519442
  Au     11.076880     10.803874      6.677914
  Au      4.262797      8.575916      8.179010
  Au      8.648859      5.839737      7.304845
  Au     11.258382      6.339698      8.209960
  Au      6.825222      8.925232      9.083296
  Au      9.185539      7.672454      9.553233
  Au     11.634062      9.058748      8.784481
  Au      9.002366     10.451071      8.564096
  Cr      9.791979      8.399446      7.039702
15
Coordinates from ORCA-job pbe E -2945.831417766628
  Au      7.853811      7.800436      5.286689
  Au     10.642829      6.455768      5.457012
  Au      6.072209      9.702711      6.460696
  Au      6.187083      6.800715      7.342858
  Au      8.459236     10.607737      5.712126
  Au     10.425560      9.025907      4.521765
  Au     11.093931     10.793155      6.669923
  Au      4.265790      8.567777      8.174093
  Au      8.642935      5.842061      7.308007
  Au     11.263160      6.341999      8.192378
  Au      6.853511      8.916316      9.073945
  Au      9.191508      7.675209      9.565145
  Au     11.613141      9.063457      8.795123
  Au      9.016581     10.469578      8.576823
  Cr      9.753026      8.404443      7.048611
15
Coordinates from ORCA-job pbe E -2945.831728199419
  Au      7.844931      7.789369      5.283424
  Au     10.641200      6.461054      5.458115
  Au      6.079034      9.712169      6.456704
  Au      6.171756      6.790752      7.344342
  Au      8.457552     10.607393      5.726296
  Au     10.417848      9.028218      4.530218
  Au     11.088087     10.781174      6.660522
  Au      4.287484      8.577372      8.153124
  Au      8.657624      5.844721      7.318097
  Au     11.271282      6.346061      8.181597
  Au      6.870332      8.912326      9.052238
  Au      9.204229      7.666534      9.574741
  Au     11.601085      9.068367      8.798121
  Au      9.027965     10.476249      8.588271
  Cr      9.713902      8.405512      7.059384
15
Coordinates from ORCA-job pbe E -2945.831833270472
  Au      7.844066      7.783752      5.286546
  Au     10.636835      6.466916      5.449235
  Au      6.079679      9.713273      6.449214
  Au      6.166187      6.781619      7.335069
  Au      8.457384     10.609504      5.737358
  Au     10.416995      9.030846      4.534595
  Au     11.088299     10.778907      6.653691
  Au      4.281483      8.575901      8.144244
  Au      8.650002      5.850965      7.329762
  Au     11.278123      6.349352      8.189468
  Au      6.869538      8.910793      9.043369
  Au      9.216304      7.659808      9.584832
  Au     11.611769      9.065037      8.788700
  Au      9.039112     10.483057      8.593840
  Cr      9.698535      8.407541      7.065272
15
Coordinates from ORCA-job pbe E -2945.831934756272
  Au      7.845904      7.783349      5.284971
  Au     10.630346      6.467544      5.452125
  Au      6.072762      9.707253      6.445437
  Au      6.163465      6.779528      7.328093
  Au      8.458264     10.612940      5.740855
  Au     10.420520      9.035086      4.535854
  Au     11.097999     10.779134      6.650882
  Au      4.282102      8.569885      8.150279
  Au      8.653755      5.856406      7.334065
  Au     11.271761      6.349328      8.193520
  Au      6.874074      8.908074      9.036745
  Au      9.210536      7.662539      9.588575
  Au     11.618793      9.061793      8.779498
  Au      9.042539     10.484143      8.597140
  Cr      9.691490      8.410268      7.067156
15
Coordinates from ORCA-job pbe E -2945.832029997334
  Au      7.849940      7.780774      5.281715
  Au     10.625757      6.471963      5.458755
  Au      6.065623      9.695751      6.434811
  Au      6.156599      6.778257      7.315650
  Au      8.457640     10.614736      5.748562
  Au     10.423121      9.042798      4.539522
  Au     11.103945     10.782719      6.650391
  Au      4.284285      8.568426      8.159642
  Au      8.650227      5.856296      7.344923
  Au     11.269044      6.347486      8.194130
  Au      6.881255      8.907365      9.024118
  Au      9.208645      7.666480      9.595192
  Au     11.625974      9.058181      8.764576
  Au      9.049964     10.482613      8.602868
  Cr      9.682289      8.413424      7.070337
15
Coordinates from ORCA-job pbe E -2945.832134805348
  Au      7.857473      7.775958      5.276746
  Au     10.613569      6.479406      5.469918
  Au      6.056884      9.674153      6.413990
  Au      6.149843      6.778293      7.293695
  Au      8.452988     10.615457      5.763338
  Au     10.425628      9.052497      4.546537
  Au     11.106451     10.794194      6.650770
  Au      4.287990      8.568315      8.171821
  Au      8.643187      5.858476      7.363003
  Au     11.260391      6.342660      8.196047
  Au      6.892118      8.907175      9.003002
  Au      9.216374      7.672193      9.604454
  Au     11.637800      9.048647      8.741918
  Au      9.063129     10.481846      8.614258
  Cr      9.670485      8.417999      7.075695
15
Coordinates from ORCA-job pbe E -2945.832218429202
  Au      7.867229      7.769056      5.267894
  Au     10.602406      6.485778      5.476006
  Au      6.048306      9.652474      6.391706
  Au      6.139317      6.780314      7.275914
  Au      8.447511     10.614235      5.777737
  Au     10.426044      9.061512      4.554109
  Au     11.100403     10.810003      6.653514
  Au      4.293064      8.573664      8.181209
  Au      8.631818      5.855699      7.380259
  Au     11.261378      6.332874      8.198672
  Au      6.903783      8.907759      8.982977
  Au      9.224182      7.678232      9.613756
  Au     11.648967      9.041481      8.722972
  Au      9.077485     10.482988      8.627942
  Cr      9.662417      8.421200      7.080526
15
Coordinates from ORCA-job pbe E -2945.832294476477
  Au      7.873303      7.762737      5.258509
  Au     10.587902      6.487530      5.480506
  Au      6.043396      9.636410      6.371873
  Au      6.135717      6.780679      7.264763
  Au      8.441344     10.611531      5.790934
  Au     10.423418      9.065526      4.561953
  Au     11.091888     10.821930      6.658438
  Au      4.297527      8.577952      8.182259
  Au      8.624919      5.858767      7.392816
  Au     11.258309      6.325554      8.198267
  Au      6.916359      8.906487      8.964599
  Au      9.238446      7.682235      9.620611
  Au     11.654946      9.036135      8.711021
  Au      9.091953     10.490229      8.643128
  Cr      9.654882      8.423568      7.085518
15
Coordinates from ORCA-job pbe E -2945.832349701579
  Au      7.875678      7.756157      5.248812
  Au     10.576817      6.484078      5.478278
  Au      6.037908      9.628880      6.358520
  Au      6.132789      6.779612      7.263898
  Au      8.436699     10.608787      5.799667
  Au     10.421874      9.065862      4.568805
  Au     11.083366     10.829098      6.663265
  Au      4.301230      8.583026      8.179503
  Au      8.621210      5.861065      7.397649
  Au     11.260117      6.322777      8.196077
  Au      6.928950      8.905834      8.949742
  Au      9.249828      7.684124      9.624759
  Au     11.655778      9.033959      8.710263
  Au      9.101499     10.499763      8.656851
  Cr      9.650568      8.424249      7.089105
15
Coordinates from ORCA-job pbe E -2945.832378905231
  Au      7.875188      7.753301      5.245367
  Au     10.569412      6.479630      5.474645
  Au      6.034203      9.625803      6.350989
  Au      6.131858      6.778308      7.265149
  Au      8.434647     10.606295      5.805085
  Au     10.421307      9.065446      4.573553
  Au     11.081553     10.829858      6.666205
  Au      4.301756      8.583851      8.177695
  Au      8.621071      5.863627      7.399298
  Au     11.260722      6.323543      8.191004
  Au      6.936029      8.905452      8.939503
  Au      9.253304      7.685124      9.628235
  Au     11.656095      9.035983      8.712663
  Au      9.107765     10.506250      8.664516
  Cr      9.649401      8.424799      7.091289
15
Coordinates from ORCA-job pbe E -2945.832417943793
  Au      7.875049      7.749131      5.243265
  Au     10.558993      6.472768      5.466775
  Au      6.025749      9.620481      6.340669
  Au      6.128329      6.775301      7.266780
  Au      8.431565     10.602756      5.813867
  Au     10.424535      9.065178      4.580332
  Au     11.082106     10.831081      6.669053
  Au      4.302717      8.584923      8.178736
  Au      8.619834      5.865792      7.401458
  Au     11.260627      6.329880      8.182991
  Au      6.946334      8.906819      8.922843
  Au      9.255614      7.686458      9.631989
  Au     11.656736      9.038475      8.718925
  Au      9.115697     10.512532      8.673664
  Cr      9.650424      8.425694      7.093847
15
Coordinates from ORCA-job pbe E -2945.832458835672
  Au      7.875319      7.746358      5.246900
  Au     10.545934      6.465513      5.457760
  Au      6.016457      9.615103      6.329238
  Au      6.123046      6.770128      7.267445
  Au      8.429366     10.597558      5.825138
  Au     10.428400      9.065475      4.587712
  Au     11.085872     10.831073      6.670586
  Au      4.302989      8.584135      8.180146
  Au      8.617394      5.867542      7.405091
  Au     11.260992      6.339372      8.170274
  Au      6.954719      8.909425      8.903342
  Au      9.254459      7.687467      9.636250
  Au     11.658924      9.044534      8.727231
  Au      9.125979     10.516486      8.681319
  Cr      9.654463      8.427101      7.096760
15
Coordinates from ORCA-job pbe E -2945.832491456324
  Au      7.875848      7.745428      5.254998
  Au     10.534369      6.460754      5.449639
  Au      6.007981      9.611605      6.320231
  Au      6.116721      6.763622      7.267775
  Au      8.428234     10.593008      5.835369
  Au     10.433303      9.065520      4.592117
  Au     11.090781     10.832544      6.670497
  Au      4.303691      8.583231      8.182093
  Au      8.613737      5.866978      7.409648
  Au     11.261079      6.350179      8.159713
  Au      6.959977      8.912614      8.886616
  Au      9.251982      7.686960      9.636416
  Au     11.661147      9.050334      8.736238
  Au      9.134012     10.516122      8.685105
  Cr      9.661450      8.428370      7.098740
15
Coordinates from ORCA-job pbe E -2945.832509341428
  Au      7.875583      7.746464      5.263585
  Au     10.527127      6.460002      5.447477
  Au      6.004786      9.611609      6.315680
  Au      6.112807      6.758131      7.267597
  Au      8.429317     10.590755      5.840835
  Au     10.434602      9.066289      4.592616
  Au     11.093604     10.834237      6.669107
  Au      4.303901      8.582498      8.180799
  Au      8.611331      5.865542      7.413926
  Au     11.262994      6.355039      8.154256
  Au      6.960076      8.914397      8.878667
  Au      9.250067      7.685442      9.634600
  Au     11.663407      9.054027      8.740237
  Au      9.137950     10.513643      8.685910
  Cr      9.666758      8.429193      7.099901
15
Coordinates from ORCA-job pbe E -2945.832518725142
  Au      7.874350      7.748150      5.269425
  Au     10.524099      6.461785      5.447957
  Au      6.004544      9.613986      6.314057
  Au      6.111156      6.754126      7.268926
  Au      8.431018     10.590573      5.842228
  Au     10.434400      9.066669      4.590736
  Au     11.094242     10.836154      6.668340
  Au      4.304306      8.582112      8.178175
  Au      8.610560      5.863784      7.417239
  Au     11.264373      6.355481      8.154009
  Au      6.958828      8.914659      8.876559
  Au      9.249201      7.683530      9.631221
  Au     11.664564      9.055174      8.740664
  Au      9.138491     10.511517      8.685540
  Cr      9.670178      8.429567      7.100116
15
Coordinates from ORCA-job pbe E -2945.832523224140
  Au      7.872742      7.748724      5.272223
  Au     10.521680      6.463144      5.449416
  Au      6.004702      9.615824      6.312224
  Au      6.110687      6.751114      7.270659
  Au      8.432262     10.590867      5.842901
  Au     10.433399      9.067917      4.589626
  Au     11.093391     10.837796      6.668183
  Au      4.304672      8.582331      8.174735
  Au      8.610766      5.863017      7.419456
  Au     11.265922      6.353915      8.154649
  Au      6.958806      8.914485      8.874761
  Au      9.249693      7.682556      9.630055
  Au     11.665524      9.054586      8.739047
  Au      9.138841     10.511135      8.686778
  Cr      9.671223      8.429858      7.100480
15
Coordinates from ORCA-job pbe E -2945.832525860332
  Au      7.870844      7.749002      5.273457
  Au     10.520616      6.464537      5.449873
  Au      6.004452      9.617610      6.310623
  Au      6.110664      6.748657      7.273580
  Au      8.432851     10.591197      5.843109
  Au     10.433013      9.068492      4.589121
  Au     11.092700     10.838827      6.668878
  Au      4.305046      8.582306      8.172170
  Au      8.611530      5.862750      7.420759
  Au     11.266083      6.352161      8.155593
  Au      6.959895      8.913964      8.872352
  Au      9.249992      7.682027      9.629547
  Au     11.665855      9.053720      8.737385
  Au      9.139203     10.511880      8.688154
  Cr      9.671567      8.430139      7.100592
15
Coordinates from ORCA-job pbe E -2945.832527327080
  Au      7.869494      7.748588      5.274060
  Au     10.520025      6.465044      5.450092
  Au      6.003454      9.618160      6.308971
  Au      6.110440      6.746900      7.275676
  Au      8.432692     10.591225      5.843691
  Au     10.433049      9.069563      4.589608
  Au     11.092165     10.839533      6.669445
  Au      4.305095      8.582530      8.170673
  Au      8.612063      5.863013      7.421071
  Au     11.266017      6.350917      8.155977
  Au      6.961470      8.913843      8.869135
  Au      9.250475      7.682329      9.630383
  Au     11.666471      9.052456      8.735896
  Au      9.140030     10.512746      8.689760
  Cr      9.671370      8.430422      7.100756
