17
E=  -1817.84256538;c=0;m=3
Au      9.316110025164679     10.784141937643030      6.692573364716870
Au      7.687058168098730      5.475021321780700      7.065923991909550
Au      9.390860468717269      7.882857131429370      7.134178628812920
Au      5.377912810814660      6.048929888841810      8.633602609176179
Au      7.987387278239630      6.957261590735280      9.410961435690890
Au      8.651261352586561      9.652398878590351      9.194626660368170
Au      6.715589804782520     11.115930677380209      7.682296972637160
Au      4.670010020174800      9.485505477468980      6.701752308258790
Au      5.844826313021830      8.844708354893021      9.164822657481990
Au      7.554353789491540      8.074968394540260      3.152621162437760
Au      7.091147769506130     10.042849830548491      5.110887054226230
Au      9.795636701960641      9.032281276720070      4.580870350225990
Au      4.974710694339850      8.438330304522299      4.133655286016760
Au      9.096615851335841      6.327936483331910      4.809480658866500
Au      6.276159743194710      5.946389504511800      4.689899424506710
Au      3.983855961607010      6.759066299030880      6.240196177906310
Fe      6.366242356963620      7.615333838031540      6.814637256761230
