17
Coordinates from ORCA-job pbe E -3436.720731702387
  Au      9.316110     10.784142      6.692573
  Au      7.687058      5.475021      7.065924
  Au      9.390860      7.882857      7.134179
  Au      5.377913      6.048930      8.633603
  Au      7.987387      6.957262      9.410961
  Au      8.651261      9.652399      9.194627
  Au      6.715590     11.115931      7.682297
  Au      4.670010      9.485505      6.701752
  Au      5.844826      8.844708      9.164823
  Au      7.554354      8.074968      3.152621
  Au      7.091148     10.042850      5.110887
  Au      9.795637      9.032281      4.580870
  Au      4.974711      8.438330      4.133655
  Au      9.096616      6.327936      4.809481
  Au      6.276160      5.946390      4.689899
  Au      3.983856      6.759066      6.240196
  Fe      6.366242      7.615334      6.814637
17
Coordinates from ORCA-job pbe E -3436.723682290987
  Au      9.298357     10.760497      6.686092
  Au      7.698194      5.468321      7.061966
  Au      9.377304      7.887447      7.127420
  Au      5.386474      6.053186      8.630948
  Au      7.984827      6.965950      9.390389
  Au      8.641215      9.638007      9.164720
  Au      6.720138     11.097178      7.668331
  Au      4.668648      9.499299      6.702151
  Au      5.853930      8.842019      9.143750
  Au      7.553629      8.081324      3.186553
  Au      7.095266     10.031705      5.121215
  Au      9.773683      9.027735      4.602091
  Au      4.990779      8.439412      4.148968
  Au      9.087558      6.343424      4.825094
  Au      6.284995      5.961681      4.704280
  Au      3.989942      6.765311      6.237489
  Fe      6.374800      7.621417      6.811529
17
Coordinates from ORCA-job pbe E -3436.725732004086
  Au      9.297174     10.755466      6.679531
  Au      7.715533      5.435345      7.061808
  Au      9.372065      7.889039      7.122414
  Au      5.392775      6.049808      8.629898
  Au      7.976192      6.967885      9.372622
  Au      8.635226      9.627940      9.143137
  Au      6.719705     11.091349      7.657438
  Au      4.644015      9.526821      6.704739
  Au      5.856957      8.837113      9.123034
  Au      7.553368      8.086815      3.210545
  Au      7.097688     10.028401      5.127288
  Au      9.771211      9.030814      4.610177
  Au      4.998608      8.436671      4.166800
  Au      9.086826      6.348508      4.836789
  Au      6.290425      5.972485      4.721952
  Au      3.988530      6.771955      6.236521
  Fe      6.383441      7.627495      6.808292
17
Coordinates from ORCA-job pbe E -3436.727108177601
  Au      9.301733     10.761248      6.675799
  Au      7.729967      5.399829      7.062933
  Au      9.368828      7.887662      7.116676
  Au      5.399342      6.041354      8.622482
  Au      7.964440      6.965613      9.354180
  Au      8.630910      9.624954      9.128596
  Au      6.716742     11.090382      7.649210
  Au      4.615398      9.551787      6.708798
  Au      5.854101      8.834487      9.106245
  Au      7.554877      8.088343      3.225849
  Au      7.098294     10.027895      5.133864
  Au      9.779762      9.034440      4.609069
  Au      5.002662      8.433184      4.188224
  Au      9.088144      6.348341      4.846468
  Au      6.295377      5.977101      4.738343
  Au      3.986659      6.783289      6.241412
  Fe      6.392504      7.634002      6.804838
17
Coordinates from ORCA-job pbe E -3436.728056298279
  Au      9.309174     10.770651      6.672019
  Au      7.739724      5.367853      7.064514
  Au      9.364659      7.887114      7.110487
  Au      5.405029      6.030210      8.609202
  Au      7.952044      6.964288      9.335447
  Au      8.627632      9.623633      9.118230
  Au      6.712559     11.090040      7.642680
  Au      4.589610      9.572128      6.713870
  Au      5.847208      8.834533      9.093934
  Au      7.558891      8.089763      3.235389
  Au      7.099860     10.027249      5.141271
  Au      9.791182      9.038552      4.605619
  Au      5.006248      8.429083      4.209523
  Au      9.090382      6.346980      4.853976
  Au      6.299175      5.974118      4.751433
  Au      3.983840      6.796406      6.254029
  Fe      6.402523      7.641311      6.801364
17
Coordinates from ORCA-job pbe E -3436.728732569793
  Au      9.317419     10.780605      6.668567
  Au      7.745991      5.342624      7.063945
  Au      9.359570      7.888671      7.103055
  Au      5.408583      6.017619      8.592006
  Au      7.939672      6.965271      9.318332
  Au      8.625683      9.624544      9.111615
  Au      6.709041     11.090294      7.638452
  Au      4.569401      9.586685      6.718847
  Au      5.836498      8.835498      9.087384
  Au      7.561808      8.090252      3.243535
  Au      7.102929     10.023725      5.148472
  Au      9.801936      9.041711      4.601314
  Au      5.013361      8.423370      4.229475
  Au      9.090830      6.346224      4.859256
  Au      6.301060      5.967583      4.761655
  Au      3.981964      6.809730      6.270141
  Fe      6.413994      7.649505      6.796935
17
Coordinates from ORCA-job pbe E -3436.729260930114
  Au      9.323604     10.789276      6.667200
  Au      7.749058      5.325155      7.062879
  Au      9.352736      7.893472      7.096408
  Au      5.411018      6.005753      8.574453
  Au      7.927382      6.970137      9.302309
  Au      8.623449      9.625699      9.105544
  Au      6.707675     11.088653      7.636753
  Au      4.555966      9.596654      6.725142
  Au      5.824351      8.835679      9.084717
  Au      7.565714      8.089663      3.246433
  Au      7.108566     10.019461      5.156802
  Au      9.813111      9.045723      4.596943
  Au      5.020659      8.416234      4.246008
  Au      9.090998      6.344922      4.861563
  Au      6.299303      5.956625      4.768964
  Au      3.979452      6.822065      6.288367
  Fe      6.426699      7.658743      6.792502
17
Coordinates from ORCA-job pbe E -3436.729691498068
  Au      9.331180     10.797755      6.665092
  Au      7.749772      5.315633      7.059165
  Au      9.345757      7.899818      7.088176
  Au      5.411919      5.993594      8.558005
  Au      7.915919      6.976136      9.290654
  Au      8.623117      9.629440      9.104634
  Au      6.706891     11.088042      7.637937
  Au      4.548970      9.601111      6.729692
  Au      5.809558      8.834181      9.087028
  Au      7.568305      8.088870      3.249755
  Au      7.115940     10.011964      5.163148
  Au      9.820974      9.047687      4.591949
  Au      5.030776      8.407553      4.259481
  Au      9.087784      6.345648      4.862059
  Au      6.295017      5.945473      4.774959
  Au      3.977347      6.832617      6.304142
  Fe      6.440512      7.668389      6.787110
17
Coordinates from ORCA-job pbe E -3436.730030552904
  Au      9.335884     10.803500      6.666033
  Au      7.748800      5.314143      7.057400
  Au      9.337725      7.909258      7.082673
  Au      5.412889      5.984041      8.545697
  Au      7.905700      6.985515      9.281335
  Au      8.622095      9.631080      9.103306
  Au      6.707847     11.083078      7.640866
  Au      4.549062      9.602217      6.734675
  Au      5.795811      8.830361      9.090062
  Au      7.571322      8.087423      3.246052
  Au      7.124934     10.005017      5.170516
  Au      9.829598      9.051571      4.587155
  Au      5.038351      8.398436      4.267709
  Au      9.084651      6.345546      4.859899
  Au      6.286178      5.932347      4.779251
  Au      3.973730      6.841292      6.318197
  Fe      6.455161      7.679086      6.782158
17
Coordinates from ORCA-job pbe E -3436.730228983536
  Au      9.342245     10.810353      6.665464
  Au      7.749562      5.310990      7.054652
  Au      9.330584      7.917931      7.075564
  Au      5.414196      5.974093      8.532653
  Au      7.896057      6.992783      9.273603
  Au      8.622469      9.633838      9.104841
  Au      6.707055     11.079282      7.643746
  Au      4.547167      9.604267      6.736831
  Au      5.781412      8.824911      9.092778
  Au      7.572723      8.086700      3.245711
  Au      7.133885      9.996616      5.176058
  Au      9.836171      9.053471      4.582092
  Au      5.047268      8.389680      4.276281
  Au      9.078723      6.346315      4.859523
  Au      6.277913      5.922150      4.786001
  Au      3.971573      6.850444      6.330900
  Fe      6.470737      7.690087      6.776288
17
Coordinates from ORCA-job pbe E -3436.730353754371
  Au      9.345829     10.813787      6.666385
  Au      7.750541      5.314604      7.054617
  Au      9.326184      7.926208      7.071113
  Au      5.415344      5.968495      8.526974
  Au      7.891965      6.997642      9.273438
  Au      8.624836      9.636071      9.109240
  Au      6.706627     11.073182      7.647581
  Au      4.550037      9.603224      6.734763
  Au      5.770623      8.816865      9.094730
  Au      7.572980      8.086929      3.241782
  Au      7.141905      9.989817      5.178624
  Au      9.838760      9.054043      4.578245
  Au      5.051665      8.384121      4.276693
  Au      9.070811      6.347899      4.858603
  Au      6.268101      5.916060      4.792539
  Au      3.969686      6.855605      6.336223
  Fe      6.483844      7.699361      6.771436
17
Coordinates from ORCA-job pbe E -3436.730462030597
  Au      9.346971     10.814219      6.669538
  Au      7.751962      5.324072      7.058391
  Au      9.323965      7.933580      7.070495
  Au      5.416311      5.968299      8.526366
  Au      7.893172      7.000810      9.279509
  Au      8.628446      9.636123      9.116314
  Au      6.706663     11.063384      7.652366
  Au      4.556622      9.599537      6.728259
  Au      5.763573      8.806549      9.094338
  Au      7.570981      8.087919      3.233737
  Au      7.148071      9.984681      5.178327
  Au      9.838277      9.054005      4.574831
  Au      5.051803      8.381871      4.269585
  Au      9.060288      6.350237      4.857389
  Au      6.257474      5.913877      4.799883
  Au      3.969717      6.857090      6.336257
  Fe      6.495442      7.707658      6.767401
17
Coordinates from ORCA-job pbe E -3436.730547468428
  Au      9.345654     10.811670      6.673244
  Au      7.753820      5.335534      7.065453
  Au      9.324665      7.937905      7.072721
  Au      5.417114      5.973039      8.529383
  Au      7.899347      7.000176      9.291246
  Au      8.633397      9.635565      9.125378
  Au      6.707971     11.051572      7.656839
  Au      4.563594      9.594319      6.718092
  Au      5.760382      8.796215      9.091458
  Au      7.567567      8.089699      3.223986
  Au      7.151046      9.981921      5.175222
  Au      9.833998      9.052815      4.573149
  Au      5.047510      8.383411      4.256716
  Au      9.048089      6.354706      4.856603
  Au      6.248689      5.915821      4.807665
  Au      3.972457      6.855492      6.331433
  Fe      6.504438      7.714049      6.764399
17
Coordinates from ORCA-job pbe E -3436.730595512488
  Au      9.343520     10.808331      6.676107
  Au      7.755683      5.341219      7.072787
  Au      9.326545      7.938003      7.077376
  Au      5.418372      5.979031      8.531646
  Au      7.905860      6.998421      9.300784
  Au      8.636659      9.633113      9.131286
  Au      6.709759     11.041481      7.658895
  Au      4.565858      9.591567      6.710079
  Au      5.760648      8.790848      9.086830
  Au      7.564008      8.091382      3.216272
  Au      7.149721      9.982060      5.171699
  Au      9.830312      9.052568      4.573138
  Au      5.042111      8.386614      4.245721
  Au      9.039371      6.358883      4.856706
  Au      6.245310      5.918513      4.813297
  Au      3.976332      6.854024      6.327435
  Fe      6.509670      7.717853      6.762926
17
Coordinates from ORCA-job pbe E -3436.730630458999
  Au      9.341612     10.805132      6.676663
  Au      7.757626      5.341552      7.078617
  Au      9.329500      7.934720      7.082025
  Au      5.420371      5.983838      8.532206
  Au      7.911386      6.994984      9.308862
  Au      8.639514      9.631713      9.135845
  Au      6.711800     11.034041      7.658852
  Au      4.563947      9.590861      6.703947
  Au      5.761772      8.788949      9.082656
  Au      7.561092      8.093089      3.212009
  Au      7.145703      9.983412      5.167546
  Au      9.826252      9.052063      4.574871
  Au      5.037181      8.389834      4.237444
  Au      9.032510      6.363958      4.858164
  Au      6.245590      5.921459      4.817346
  Au      3.980649      6.854011      6.324060
  Fe      6.513234      7.720297      6.761873
17
Coordinates from ORCA-job pbe E -3436.730654463049
  Au      9.340248     10.802732      6.676275
  Au      7.759268      5.337552      7.082236
  Au      9.331969      7.930495      7.087041
  Au      5.423113      5.986367      8.530109
  Au      7.913559      6.993340      9.312370
  Au      8.640701      9.629851      9.137148
  Au      6.713398     11.028524      7.657125
  Au      4.559551      9.592617      6.701766
  Au      5.762581      8.789561      9.079458
  Au      7.559453      8.094272      3.209385
  Au      7.140669      9.985581      5.164358
  Au      9.824667      9.052806      4.577103
  Au      5.033946      8.391190      4.233754
  Au      9.028909      6.367809      4.860193
  Au      6.247119      5.922262      4.819475
  Au      3.983973      6.856231      6.324189
  Fe      6.516614      7.722720      6.761001
17
Coordinates from ORCA-job pbe E -3436.730668907614
  Au      9.339840     10.801521      6.674776
  Au      7.760158      5.333556      7.082426
  Au      9.334477      7.926669      7.090227
  Au      5.425203      5.986450      8.527589
  Au      7.913118      6.992360      9.313637
  Au      8.641621      9.629977      9.137843
  Au      6.714163     11.026674      7.655267
  Au      4.556174      9.594395      6.701794
  Au      5.762260      8.790329      9.079095
  Au      7.559026      8.095097      3.209449
  Au      7.136665      9.987261      5.161190
  Au      9.823242      9.052840      4.579077
  Au      5.033363      8.390562      4.233392
  Au      9.027086      6.370631      4.862208
  Au      6.248105      5.922379      4.820071
  Au      3.985897      6.858705      6.324839
  Fe      6.519342      7.724506      6.760105
17
Coordinates from ORCA-job pbe E -3436.730681146106
  Au      9.338991     10.800310      6.673891
  Au      7.760569      5.330725      7.081512
  Au      9.337235      7.923869      7.093603
  Au      5.426884      5.985613      8.524932
  Au      7.911147      6.993054      9.313264
  Au      8.641966      9.630213      9.137429
  Au      6.714649     11.024996      7.653736
  Au      4.554499      9.596042      6.703237
  Au      5.761215      8.790465      9.079591
  Au      7.559632      8.095562      3.208763
  Au      7.133534      9.989535      5.158221
  Au      9.822615      9.053077      4.580794
  Au      5.033619      8.388693      4.234305
  Au      9.026177      6.372351      4.863620
  Au      6.247501      5.921280      4.820167
  Au      3.986689      6.861214      6.326830
  Fe      6.522816      7.726912      6.759090
17
Coordinates from ORCA-job pbe E -3436.730694221334
  Au      9.337538     10.798454      6.673182
  Au      7.760674      5.330200      7.079996
  Au      9.341999      7.920839      7.097654
  Au      5.427816      5.984647      8.523004
  Au      7.909079      6.994064      9.313378
  Au      8.642702      9.630886      9.137778
  Au      6.714860     11.023473      7.652853
  Au      4.554962      9.596582      6.704227
  Au      5.759826      8.789545      9.080835
  Au      7.560189      8.096221      3.207877
  Au      7.130325      9.993025      5.153404
  Au      9.820655      9.052554      4.582665
  Au      5.034554      8.386361      4.234862
  Au      9.024491      6.373959      4.864782
  Au      6.245834      5.920464      4.820378
  Au      3.987157      6.862864      6.328294
  Fe      6.527078      7.729771      6.757817
17
Coordinates from ORCA-job pbe E -3436.730705747033
  Au      9.335129     10.795905      6.673266
  Au      7.760398      5.332003      7.079286
  Au      9.348081      7.918318      7.101506
  Au      5.427798      5.984128      8.522409
  Au      7.907686      6.995116      9.313495
  Au      8.643180      9.631236      9.138098
  Au      6.714985     11.021725      7.652811
  Au      4.557180      9.595857      6.704354
  Au      5.758618      8.788087      9.081638
  Au      7.560727      8.096743      3.206276
  Au      7.127874      9.998008      5.148387
  Au      9.818126      9.051674      4.584512
  Au      5.035197      8.384651      4.234941
  Au      9.022723      6.374880      4.865128
  Au      6.243695      5.919758      4.820913
  Au      3.987084      6.863227      6.329270
  Fe      6.531259      7.732594      6.756696
17
Coordinates from ORCA-job pbe E -3436.730713569149
  Au      9.333145     10.793707      6.673820
  Au      7.760018      5.334774      7.079859
  Au      9.353804      7.916528      7.103730
  Au      5.426843      5.984503      8.523179
  Au      7.907753      6.995478      9.313570
  Au      8.643207      9.630636      9.138655
  Au      6.714626     11.020732      7.653510
  Au      4.559524      9.594267      6.703135
  Au      5.758053      8.786962      9.081485
  Au      7.560189      8.097144      3.205483
  Au      7.126545     10.003007      5.144445
  Au      9.815626      9.050737      4.585557
  Au      5.035708      8.384437      4.234636
  Au      9.021185      6.374820      4.864934
  Au      6.242590      5.919735      4.821859
  Au      3.987018      6.862124      6.329075
  Fe      6.533906      7.734321      6.756053
