19
E=  -2035.12177233;c=0;m=5
Au      6.240797029358220     10.561100893345170      7.067907917273710
Au      4.777394764720760      9.575350199978770      9.261949906831619
Au      3.932834751081870      7.768092263258140     11.195560385274600
Au      4.839781392246470      8.139453472844011      6.654346941239890
Au      2.783873770972300      7.651269321175400      8.674769920063410
Au      2.361961893385560      7.124014888468250      6.005460369720080
Au      4.075783762272460      5.388592780180640      7.283562660594090
Au      3.396340641286060      5.210782280229500     10.076431389513511
Au      9.357622030223800      7.184341647471770      7.579217411118230
Au      9.097747306187269     10.070112268778381      7.468757340998310
Au      9.288196272765060      8.569581817029560     10.084512721796290
Au      6.684198715569920      8.347704401599950     11.183143117221411
Au      7.983477149719600      6.070579655632610      9.783363320681801
Au      7.370248623449800     10.665308321631240      9.719708872900711
Au      7.497603740958840      8.359544188720241      5.713838587462600
Au      6.837904471302190      5.966603655982790      7.042824721700100
Au      5.902144142595670      4.318865093498090      9.074098247215630
Au      5.860335042535460      5.701339940940700     11.566803596990120
Fe      7.118868169368710      8.372788869234711      8.391050001403810
