11
E=  -1164.94957225;c=0;m=3
Au      8.745815414833720      8.463292545517280      7.260740226071720
Au      7.364398564985760     10.724258666054380      7.269644124213240
Au      5.278737518912950     10.616729252468300      9.298635052980270
Au      6.099869020176120      8.423024122978861     10.695838473468340
Au      7.588635409942510      6.688989624115600      9.337278582843620
Au      3.921578886074530      8.179142812990840      8.716677227578080
Au      4.931900207612000      9.300778672953239      6.217355954388260
Au      8.588848885845620      5.680254259629800      7.016753098957600
Au      6.428828677353240      7.077989758140280      5.985067928270070
Au      4.909487471147740     11.991270416262131      6.981530233447900
Fe      6.347916563115800      8.431410188889330      8.116136687780839
