13
E=  -1382.44531962;c=0;m=3
Au      6.782828688221630      8.653413364201660      9.179442016573651
Au      9.610553246707410      5.458686156346370      7.127087642865420
Au      7.274792630968770      7.192006220586090      6.863027830035160
Au     10.195736637347389      5.571986034682850      9.963535540627181
Au      8.452795300158350      7.446261759566490     11.241836108700360
Au      7.101943589502640      4.369544964593050      7.016662404775980
Au      7.360185414703230      5.719590018117540      9.383389774719380
Au     11.118335552720950      8.273079212856601     10.570686694680701
Au     11.664820675620231      7.074383738996300      8.021001635252640
Au     10.961899936745681      9.866959486200740      8.203873292438621
Au      9.739747068903810      8.310179580385940      6.214900730425510
Au      8.948045764443551     10.100618225399939     10.222720706755890
Fe      9.209890673956330      7.842597438066520      8.717270172149460
