13
Coordinates from ORCA-job pbe E -2893.386299611107
  Au      6.782829      8.653413      9.179442
  Au      9.610553      5.458686      7.127088
  Au      7.274793      7.192006      6.863028
  Au     10.195737      5.571986      9.963536
  Au      8.452795      7.446262     11.241836
  Au      7.101944      4.369545      7.016662
  Au      7.360185      5.719590      9.383390
  Au     11.118336      8.273079     10.570687
  Au     11.664821      7.074384      8.021002
  Au     10.961900      9.866959      8.203873
  Au      9.739747      8.310180      6.214901
  Au      8.948046     10.100618     10.222721
  Fe      9.209891      7.842597      8.717270
13
Coordinates from ORCA-job pbe E -2893.386581498469
  Au      6.783220      8.647790      9.174917
  Au      9.621212      5.491217      7.144238
  Au      7.298084      7.163413      6.889212
  Au     10.165963      5.585184      9.932868
  Au      8.441201      7.430108     11.225362
  Au      7.138993      4.438126      7.045818
  Au      7.381087      5.752024      9.390550
  Au     11.107167      8.291988     10.556237
  Au     11.646984      7.058278      8.011401
  Au     10.959469      9.826709      8.198244
  Au      9.735117      8.305386      6.215860
  Au      8.937499     10.059689     10.226402
  Fe      9.205580      7.829395      8.714327
13
Coordinates from ORCA-job pbe E -2893.387644592362
  Au      6.784845      8.662022      9.177474
  Au      9.642437      5.472862      7.122210
  Au      7.300190      7.172365      6.889927
  Au     10.164196      5.588932      9.931011
  Au      8.440953      7.442273     11.238318
  Au      7.111451      4.400953      7.022695
  Au      7.356640      5.738880      9.413428
  Au     11.112562      8.312609     10.558222
  Au     11.661072      7.068100      8.009665
  Au     10.965425      9.819440      8.195144
  Au      9.739777      8.319439      6.215937
  Au      8.933614     10.052883     10.234296
  Fe      9.208414      7.828546      8.717107
13
Coordinates from ORCA-job pbe E -2893.387865241352
  Au      6.778271      8.671330      9.175517
  Au      9.639898      5.457469      7.094890
  Au      7.310006      7.165095      6.900078
  Au     10.160256      5.587811      9.927807
  Au      8.436998      7.444472     11.254410
  Au      7.123694      4.404544      7.034442
  Au      7.327578      5.726596      9.412674
  Au     11.124246      8.308328     10.569243
  Au     11.677025      7.067990      8.005455
  Au     10.972157      9.829261      8.183736
  Au      9.739359      8.328044      6.208395
  Au      8.923415     10.064834     10.240987
  Fe      9.208671      7.823532      8.717799
13
Coordinates from ORCA-job pbe E -2893.388201924694
  Au      6.775645      8.675451      9.172605
  Au      9.658174      5.465270      7.082307
  Au      7.318894      7.163150      6.908723
  Au     10.144262      5.594926      9.911526
  Au      8.431279      7.436969     11.250502
  Au      7.136078      4.398992      7.047961
  Au      7.316183      5.738002      9.429920
  Au     11.121457      8.311877     10.565193
  Au     11.672341      7.060288      8.000632
  Au     10.974568      9.824772      8.188520
  Au      9.737512      8.332112      6.205104
  Au      8.927425     10.059633     10.245097
  Fe      9.207757      7.817863      8.717344
13
Coordinates from ORCA-job pbe E -2893.388382926310
  Au      6.778898      8.687665      9.172819
  Au      9.676345      5.469362      7.057856
  Au      7.329418      7.154228      6.919626
  Au     10.124996      5.593702      9.892916
  Au      8.427280      7.441979     11.248928
  Au      7.158157      4.398387      7.071108
  Au      7.292650      5.746818      9.447402
  Au     11.113769      8.313371     10.556378
  Au     11.671354      7.064530      7.996214
  Au     10.971471      9.811820      8.193266
  Au      9.740159      8.344353      6.206433
  Au      8.930330     10.044906     10.245367
  Fe      9.206746      7.808184      8.717122
13
Coordinates from ORCA-job pbe E -2893.388520619558
  Au      6.779660      8.691370      9.170381
  Au      9.690725      5.474659      7.035880
  Au      7.335209      7.147559      6.925883
  Au     10.110458      5.584208      9.879904
  Au      8.424463      7.445280     11.250695
  Au      7.174983      4.394892      7.088406
  Au      7.272250      5.756303      9.461400
  Au     11.113866      8.301815     10.557422
  Au     11.673315      7.067318      7.993325
  Au     10.968003      9.817836      8.195966
  Au      9.738732      8.347959      6.206298
  Au      8.933746     10.050076     10.242543
  Fe      9.206167      7.800030      8.717331
13
Coordinates from ORCA-job pbe E -2893.388684609742
  Au      6.784182      8.695107      9.166324
  Au      9.708667      5.483149      7.002934
  Au      7.337928      7.137492      6.930068
  Au     10.085422      5.562369      9.857690
  Au      8.428303      7.460459     11.255168
  Au      7.203207      4.386577      7.117426
  Au      7.241257      5.769784      9.477799
  Au     11.109993      8.275655     10.556579
  Au     11.678854      7.081624      7.995718
  Au     10.958001      9.829424      8.205044
  Au      9.735856      8.351543      6.209418
  Au      8.944480     10.059346     10.233334
  Fe      9.205424      7.786778      8.717932
13
Coordinates from ORCA-job pbe E -2893.388734466093
  Au      6.788861      8.693964      9.163950
  Au      9.715657      5.490886      6.989467
  Au      7.334394      7.130107      6.928246
  Au     10.071804      5.547079      9.846437
  Au      8.434411      7.471572     11.258238
  Au      7.215613      4.383136      7.128190
  Au      7.230410      5.781225      9.484335
  Au     11.108001      8.261607     10.556415
  Au     11.683603      7.092855      8.000984
  Au     10.951307      9.834276      8.209563
  Au      9.732774      8.349889      6.213648
  Au      8.949609     10.063455     10.227269
  Fe      9.205131      7.779254      8.718691
13
Coordinates from ORCA-job pbe E -2893.388751140229
  Au      6.790567      8.692405      9.161033
  Au      9.717138      5.497150      6.987908
  Au      7.330335      7.129277      6.925480
  Au     10.066574      5.541456      9.840926
  Au      8.439428      7.476157     11.261197
  Au      7.219441      4.379711      7.133216
  Au      7.227511      5.785405      9.482264
  Au     11.107546      8.259398     10.556533
  Au     11.686294      7.096480      8.004746
  Au     10.950637      9.834072      8.210721
  Au      9.729935      8.348094      6.215428
  Au      8.951138     10.063419     10.227169
  Fe      9.205032      7.776282      8.718813
13
Coordinates from ORCA-job pbe E -2893.388761984061
  Au      6.791627      8.690503      9.158774
  Au      9.714524      5.500728      6.986900
  Au      7.325343      7.128053      6.921475
  Au     10.064556      5.538674      9.839969
  Au      8.443929      7.476946     11.263579
  Au      7.220794      4.379030      7.131653
  Au      7.229902      5.792268      9.480992
  Au     11.108213      8.262590     10.556711
  Au     11.690371      7.098442      8.010275
  Au     10.951203      9.831484      8.210769
  Au      9.725897      8.344892      6.216452
  Au      8.950358     10.062068     10.228491
  Fe      9.204858      7.773628      8.719393
13
Coordinates from ORCA-job pbe E -2893.388768434275
  Au      6.791376      8.689608      9.157478
  Au      9.714386      5.503795      6.988428
  Au      7.322971      7.127958      6.919961
  Au     10.067721      5.539599      9.842090
  Au      8.446200      7.475020     11.264729
  Au      7.218146      4.381086      7.129645
  Au      7.230255      5.793271      9.478636
  Au     11.109213      8.267415     10.557342
  Au     11.690896      7.096081      8.012431
  Au     10.951731      9.829317      8.209178
  Au      9.724839      8.343413      6.216289
  Au      8.948840     10.060343     10.229642
  Fe      9.205002      7.772400      8.719586
13
Coordinates from ORCA-job pbe E -2893.388772290240
  Au      6.790947      8.690205      9.156648
  Au      9.713310      5.504913      6.987940
  Au      7.321939      7.130521      6.919250
  Au     10.070182      5.540980      9.844113
  Au      8.447478      7.472174     11.264491
  Au      7.218684      4.381380      7.129841
  Au      7.230077      5.794049      9.477224
  Au     11.110193      8.271059     10.557972
  Au     11.690503      7.093408      8.014337
  Au     10.951871      9.827515      8.207782
  Au      9.724104      8.343077      6.215649
  Au      8.947476     10.058946     10.230564
  Fe      9.204812      7.771080      8.719625
13
Coordinates from ORCA-job pbe E -2893.388774165779
  Au      6.790811      8.690598      9.156539
  Au      9.713572      5.505381      6.987070
  Au      7.321200      7.131319      6.918833
  Au     10.071488      5.540494      9.845448
  Au      8.448595      7.471182     11.264361
  Au      7.218755      4.383116      7.129330
  Au      7.229827      5.794638      9.477548
  Au     11.110610      8.272353     10.558289
  Au     11.690454      7.092610      8.015944
  Au     10.950647      9.827132      8.207033
  Au      9.724081      8.342605      6.215234
  Au      8.946898     10.058650     10.230054
  Fe      9.204639      7.769228      8.719750
