15
E=  -1580.71394863;c=0;m=6
Au      5.402268802861320      6.697167830457710      9.916871661458870
Au      5.531392401501720      9.305457298151101      8.925318070651880
Au      6.368717201692150      9.086903010170699      6.146940172294630
Au      7.855697224475590      8.027966404401340     10.144880082877689
Au     10.394787528100871      9.008604294357809      9.238901995625559
Au      8.086825328285160     10.079224717264481      8.149113837390210
Au     10.233694157605971      6.217278360168580      9.271568764199730
Au      9.152641989235120      9.410804052009860      5.663489191361340
Au      5.824339414754950      4.768929709455970      7.836325667095990
Au      4.588618987805090      7.240896425220110      7.214420850280480
Au      6.613148880499480      6.305605689127660      5.547227955882580
Au      7.721446496835030      5.153495207795210      9.922706259713340
Au      8.598616775959711      5.182072340427740      7.249339468808550
Au      9.378995050963439      6.670253619197430      5.066202285629440
Mn      9.658540079424411      7.651816581794290      7.315088056729710
