16
E=  -1708.89691022;c=0;m=4
Au      6.991840963985070      6.235270981217140      6.570478912599110
Au      6.504227062473040      9.145473572927630      6.255797803612780
Au      4.411832069445870      7.336367329769430      6.625207338154690
Au      8.891927220918490      7.852894668792650      5.285474353317720
Au      3.167556689695280      7.316897442657090      9.200491405466980
Au      9.047781184147871     10.395421912495440      6.425719578825920
Au      4.747639786026400      9.486321940177090      8.524571212401719
Au      7.192339863619500     10.663103019571141      8.614329160268490
Au      5.583758082198390      7.574738818631820     10.526902619737211
Au      5.243163936028310      5.437391330934640      8.613276247394790
Au      7.825209019195390      6.129646081258460      9.415702255504280
Au      9.937008158420070     10.173177610111050      9.095755233467070
Au      8.031132360203721      8.745468343934331     10.622443015824039
Au     10.351767516345991      7.417798318845510      9.546502410127220
Au      9.706486572383991      5.989751408709100      7.237187539302450
Fe      8.503948484912600      8.304480599967460      7.911677433995510
