15
E=  -1580.71910020;c=0;m=6
Au     10.002920567346250      9.239446940504660      9.801929112543570
Au      9.068390321438130      9.376181081008379      5.798452904598450
Au      7.847951116718180      5.957173910633880     10.421351215145449
Au      5.206807764016590      9.430715669044600      8.816347874681950
Au      5.260734944214500      6.957397664483300     10.199882506360369
Au      7.332990155666440      8.760769315422561     10.655636782932950
Au      7.894515117108630     10.035872270373041      8.208171829482749
Au     10.501660217405460      6.492026388346410      9.542493466378810
Au      8.733790279017240      5.211602994464110      7.851426019969790
Au      6.015468903878910      4.840301163717320      8.478883853958180
Au      4.605116610184190      7.048221295080030      7.402511556921170
Au      6.289466795224170      8.901663496971169      6.188997441387230
Au      9.582159450704481      6.623097516760340      5.633819090728230
Au      6.806631663437570      6.095341337439380      5.993408720963970
Mn      9.619045453639361      7.927217415751010      7.732860003946870
