15
Coordinates from ORCA-job pbe E -3165.072847407706
  Au      7.701412     10.419299      8.661777
  Au      6.534375     10.064165      6.093962
  Au      6.869058      8.278702     10.336616
  Au      4.992090      9.502921      8.489964
  Au      9.236729      9.449038      6.503451
  Au      9.453876      8.290402      9.256211
  Au      4.808237      7.725301      6.216659
  Au      7.558790      5.697963      9.170122
  Au      5.013736      6.630249      8.818568
  Au     10.323662      5.595222      8.949929
  Au      8.769993      5.918717      6.683054
  Au      9.987106      7.391667      4.681405
  Au     11.250256      7.640428      7.211883
  Au      7.227512      7.465194      4.971533
  Fe      7.061654      7.908201      7.655269
15
Coordinates from ORCA-job pbe E -3165.073865703490
  Au      7.712925     10.350144      8.631885
  Au      6.573117     10.058150      6.116721
  Au      6.903673      8.292869     10.311566
  Au      5.032541      9.499470      8.485164
  Au      9.205025      9.437307      6.525846
  Au      9.418723      8.296242      9.236313
  Au      4.832907      7.725212      6.218032
  Au      7.554011      5.695848      9.158634
  Au      5.037760      6.632532      8.814441
  Au     10.294986      5.627810      8.936514
  Au      8.760528      5.937798      6.692066
  Au      9.961866      7.403695      4.717713
  Au     11.198452      7.663743      7.225877
  Au      7.224250      7.455105      4.978398
  Fe      7.077720      7.901544      7.651232
15
Coordinates from ORCA-job pbe E -3165.074736971720
  Au      7.699152     10.375846      8.643752
  Au      6.554269     10.068015      6.106488
  Au      6.886868      8.291517     10.328198
  Au      5.025979      9.502850      8.486958
  Au      9.230067      9.437103      6.511057
  Au      9.445315      8.286799      9.242816
  Au      4.835112      7.718648      6.219546
  Au      7.541710      5.686024      9.161341
  Au      5.039220      6.629266      8.808565
  Au     10.302831      5.623828      8.935136
  Au      8.759442      5.944967      6.695288
  Au      9.969124      7.400912      4.714898
  Au     11.207949      7.658258      7.222962
  Au      7.211309      7.449234      4.971210
  Fe      7.080140      7.904200      7.652188
15
Coordinates from ORCA-job pbe E -3165.074941434631
  Au      7.708119     10.372981      8.641751
  Au      6.556936     10.072906      6.102484
  Au      6.890239      8.292293     10.334098
  Au      5.021995      9.502480      8.487046
  Au      9.223526      9.453986      6.505045
  Au      9.440208      8.293738      9.259472
  Au      4.829254      7.718489      6.229208
  Au      7.538595      5.664161      9.165671
  Au      5.032032      6.635923      8.802777
  Au     10.307641      5.612092      8.952069
  Au      8.752029      5.947710      6.697106
  Au      9.970747      7.405483      4.694479
  Au     11.223170      7.664385      7.224418
  Au      7.206362      7.436712      4.953178
  Fe      7.087630      7.904132      7.651597
15
Coordinates from ORCA-job pbe E -3165.075277679332
  Au      7.716426     10.374559      8.641691
  Au      6.559261     10.071178      6.099137
  Au      6.892881      8.289018     10.334833
  Au      5.025093      9.501872      8.486509
  Au      9.222927      9.453972      6.504440
  Au      9.439569      8.292995      9.259629
  Au      4.836026      7.717309      6.228470
  Au      7.537374      5.654486      9.162547
  Au      5.038812      6.635084      8.801743
  Au     10.296910      5.620568      8.946865
  Au      8.748243      5.961035      6.703066
  Au      9.961234      7.407502      4.705765
  Au     11.208972      7.666259      7.226460
  Au      7.205015      7.427634      4.948651
  Fe      7.099743      7.903997      7.650597
15
Coordinates from ORCA-job pbe E -3165.075531498939
  Au      7.716489     10.366680      8.638422
  Au      6.560035     10.061752      6.103286
  Au      6.892437      8.285940     10.325110
  Au      5.045315      9.500015      8.483967
  Au      9.225632      9.461818      6.501865
  Au      9.442841      8.296202      9.265978
  Au      4.851647      7.719305      6.228363
  Au      7.515847      5.633406      9.162275
  Au      5.054528      6.637439      8.801504
  Au     10.285947      5.630353      8.947190
  Au      8.743334      5.981769      6.712259
  Au      9.950570      7.414421      4.714443
  Au     11.194748      7.672355      7.230267
  Au      7.182617      7.411688      4.936830
  Fe      7.126497      7.904325      7.648644
15
Coordinates from ORCA-job pbe E -3165.075712470605
  Au      7.719861     10.374465      8.641392
  Au      6.560863     10.056432      6.098877
  Au      6.893426      8.279390     10.324348
  Au      5.046325      9.500088      8.483770
  Au      9.226570      9.469226      6.498864
  Au      9.444445      8.299018      9.273157
  Au      4.847227      7.720399      6.235300
  Au      7.518962      5.618614      9.162341
  Au      5.049414      6.642902      8.798212
  Au     10.279095      5.632222      8.950614
  Au      8.741985      5.987105      6.714602
  Au      9.943301      7.417856      4.714414
  Au     11.189521      7.672605      7.230655
  Au      7.184947      7.401759      4.926006
  Fe      7.142542      7.905388      7.647849
15
Coordinates from ORCA-job pbe E -3165.075851431496
  Au      7.720931     10.381197      8.644086
  Au      6.559936     10.048668      6.094826
  Au      6.892493      8.271274     10.321865
  Au      5.042654      9.502863      8.485199
  Au      9.228611      9.477828      6.500721
  Au      9.446546      8.306373      9.277988
  Au      4.845037      7.723111      6.237147
  Au      7.515158      5.613308      9.159655
  Au      5.047304      6.645774      8.799206
  Au     10.276673      5.631133      8.956637
  Au      8.745554      5.980944      6.711698
  Au      9.940374      7.421016      4.709520
  Au     11.190081      7.670532      7.229638
  Au      7.180984      7.396220      4.924652
  Fe      7.156149      7.907228      7.647564
15
Coordinates from ORCA-job pbe E -3165.076032852824
  Au      7.709213     10.388051      8.647841
  Au      6.560945     10.033609      6.092331
  Au      6.892578      8.259579     10.312975
  Au      5.045660      9.505469      8.485852
  Au      9.235181      9.491575      6.504457
  Au      9.453448      8.319054      9.285252
  Au      4.840365      7.728116      6.245850
  Au      7.507687      5.607841      9.150725
  Au      5.042210      6.654610      8.797262
  Au     10.270641      5.633773      8.966168
  Au      8.753160      5.963755      6.703504
  Au      9.933020      7.429025      4.705287
  Au     11.186368      7.666436      7.227927
  Au      7.174719      7.385917      4.928076
  Fe      7.183289      7.910660      7.646895
15
Coordinates from ORCA-job pbe E -3165.076156664697
  Au      7.701441     10.392506      8.650063
  Au      6.564527     10.023978      6.088543
  Au      6.895987      8.250853     10.308241
  Au      5.045859      9.506229      8.486697
  Au      9.240420      9.502818      6.510799
  Au      9.458215      8.331975      9.288683
  Au      4.838521      7.732726      6.250108
  Au      7.499273      5.605992      9.135533
  Au      5.040278      6.660609      8.797889
  Au     10.263698      5.640482      8.970453
  Au      8.760155      5.942735      6.694184
  Au      9.927156      7.436640      4.707359
  Au     11.177488      7.663232      7.227721
  Au      7.167224      7.373504      4.938144
  Fe      7.208244      7.913191      7.645983
15
Coordinates from ORCA-job pbe E -3165.076224886308
  Au      7.693241     10.394883      8.651394
  Au      6.568300     10.021960      6.087751
  Au      6.899544      8.249157     10.307339
  Au      5.047603      9.503716      8.484756
  Au      9.244093      9.510690      6.515218
  Au      9.462372      8.341235      9.292064
  Au      4.837534      7.737044      6.252196
  Au      7.493814      5.606160      9.120698
  Au      5.039480      6.664469      8.799091
  Au     10.259206      5.646997      8.970766
  Au      8.763672      5.921983      6.684131
  Au      9.920867      7.442038      4.713088
  Au     11.168406      7.661407      7.227248
  Au      7.165689      7.361592      4.949489
  Fe      7.224664      7.914137      7.645172
15
Coordinates from ORCA-job pbe E -3165.076247223686
  Au      7.691826     10.396243      8.651749
  Au      6.569923     10.024966      6.087811
  Au      6.901902      8.252032     10.308234
  Au      5.048627      9.499162      8.485601
  Au      9.245319      9.515389      6.515316
  Au      9.462726      8.344517      9.293562
  Au      4.838454      7.739047      6.251680
  Au      7.494381      5.605136      9.111269
  Au      5.040025      6.667016      8.801226
  Au     10.254468      5.651704      8.968123
  Au      8.763949      5.908310      6.679971
  Au      9.921774      7.443902      4.717417
  Au     11.162420      7.662073      7.230056
  Au      7.162808      7.354660      4.954158
  Fe      7.229881      7.913312      7.644227
15
Coordinates from ORCA-job pbe E -3165.076261362698
  Au      7.693689     10.396877      8.652004
  Au      6.570563     10.028289      6.089447
  Au      6.902391      8.255472     10.310639
  Au      5.049100      9.498102      8.482399
  Au      9.244203      9.516981      6.514646
  Au      9.462764      8.345214      9.296846
  Au      4.839858      7.741164      6.250797
  Au      7.492259      5.603337      9.109040
  Au      5.042047      6.666603      8.802468
  Au     10.256259      5.652983      8.965287
  Au      8.762136      5.901473      6.675454
  Au      9.919242      7.444075      4.721935
  Au     11.158883      7.665596      7.230191
  Au      7.165432      7.349771      4.955475
  Fe      7.229657      7.911531      7.643773
15
Coordinates from ORCA-job pbe E -3165.076269752215
  Au      7.695493     10.396679      8.651687
  Au      6.569663     10.029218      6.090273
  Au      6.901119      8.256890     10.310697
  Au      5.050171      9.498956      8.483281
  Au      9.243210      9.518009      6.512793
  Au      9.462270      8.343964      9.298508
  Au      4.841212      7.740542      6.250204
  Au      7.494008      5.601928      9.111024
  Au      5.043223      6.666442      8.802297
  Au     10.256147      5.652305      8.964028
  Au      8.760024      5.901375      6.675967
  Au      9.919767      7.442707      4.722142
  Au     11.159302      7.667746      7.231430
  Au      7.165810      7.350400      4.952658
  Fe      7.227066      7.910308      7.643412
15
Coordinates from ORCA-job pbe E -3165.076275136550
  Au      7.698296     10.396412      8.651789
  Au      6.568351     10.028483      6.090672
  Au      6.900441      8.257159     10.309821
  Au      5.051347      9.500746      8.484227
  Au      9.243325      9.520527      6.510422
  Au      9.461132      8.343980      9.301474
  Au      4.842522      7.740522      6.251030
  Au      7.494770      5.599454      9.112937
  Au      5.044820      6.667019      8.801923
  Au     10.255397      5.652534      8.961995
  Au      8.757175      5.898903      6.675438
  Au      9.920704      7.441649      4.723822
  Au     11.158288      7.671646      7.233168
  Au      7.165361      7.350169      4.949064
  Fe      7.226556      7.908269      7.642620
15
Coordinates from ORCA-job pbe E -3165.076276718354
  Au      7.698700     10.396464      8.651049
  Au      6.569082     10.027163      6.090815
  Au      6.899346      8.256370     10.309323
  Au      5.051798      9.502293      8.484624
  Au      9.242524      9.523026      6.510310
  Au      9.462701      8.344070      9.303428
  Au      4.843162      7.740486      6.250826
  Au      7.495126      5.598789      9.113802
  Au      5.044958      6.667682      8.801763
  Au     10.255611      5.653311      8.960320
  Au      8.755433      5.896276      6.674495
  Au      9.919865      7.441183      4.725158
  Au     11.157481      7.673286      7.234375
  Au      7.164929      7.350022      4.948134
  Fe      7.227768      7.907046      7.641978
15
Coordinates from ORCA-job pbe E -3165.076278555502
  Au      7.698036     10.395998      8.651329
  Au      6.568950     10.026107      6.090403
  Au      6.899736      8.255673     10.308620
  Au      5.051799      9.502865      8.484804
  Au      9.243782      9.524036      6.510088
  Au      9.462658      8.345064      9.304271
  Au      4.842774      7.740630      6.251100
  Au      7.495042      5.599349      9.114151
  Au      5.044970      6.667613      8.801930
  Au     10.255145      5.653623      8.959514
  Au      8.754402      5.894695      6.673785
  Au      9.919812      7.440922      4.726272
  Au     11.157242      7.673831      7.234275
  Au      7.165044      7.350695      4.948235
  Fe      7.229094      7.906368      7.641625
