17
E=  -1817.53554256;c=0;m=5
Au      8.047826160915230      9.963970619198919      8.203573622992851
Au      7.258408662983140      8.655251693141411     10.561229585902010
Au      9.204024772311550      7.494982098683710      8.899285209300970
Au      7.440162956132880      7.214164890840630      5.142799111698470
Au      9.682539185406361      8.574630088272309      6.249084018964100
Au      9.434048613068599      5.824866120838950      6.627808665778060
Au      7.461886655326280     10.047328153191421      5.435453509222460
Au      5.372973542684730     10.077440351159140      7.343554288631040
Au      7.063347337692100      4.517527975806610      5.969202576387930
Au      4.858843864465980      6.012432915242830      5.158913781409690
Au      5.001428373901500      5.243999124592460      7.878030042579720
Au      5.712404685353020      6.268813072651830     10.395471632932869
Au      7.680844920495710      5.137553479667250      8.737301524747039
Au      3.849641179219640      7.712726763119820      7.181551387786620
Au      4.548765860444690      8.770679073365500      9.692431382937031
Au      5.080822960511220      8.762513255920760      4.771785682449730
Fe      6.474627319087340      7.627121644306450      8.203172906279409
