17
Coordinates from ORCA-job pbe E -3436.756860556386
  Au      8.047826      9.963971      8.203574
  Au      7.258409      8.655252     10.561230
  Au      9.204025      7.494982      8.899285
  Au      7.440163      7.214165      5.142799
  Au      9.682539      8.574630      6.249084
  Au      9.434049      5.824866      6.627809
  Au      7.461887     10.047328      5.435454
  Au      5.372974     10.077440      7.343554
  Au      7.063347      4.517528      5.969203
  Au      4.858844      6.012433      5.158914
  Au      5.001428      5.243999      7.878030
  Au      5.712405      6.268813     10.395472
  Au      7.680845      5.137553      8.737302
  Au      3.849641      7.712727      7.181551
  Au      4.548766      8.770679      9.692431
  Au      5.080823      8.762513      4.771786
  Fe      6.474627      7.627122      8.203173
17
Coordinates from ORCA-job pbe E -3436.759828635043
  Au      8.033431      9.942203      8.197584
  Au      7.259072      8.649455     10.533881
  Au      9.177895      7.497705      8.886797
  Au      7.434445      7.216645      5.162244
  Au      9.654198      8.564634      6.258801
  Au      9.406572      5.842372      6.633191
  Au      7.455496     10.020939      5.455860
  Au      5.387659     10.050868      7.349111
  Au      7.060041      4.546435      5.981686
  Au      4.878439      6.027019      5.181964
  Au      5.016160      5.266415      7.875454
  Au      5.720446      6.273073     10.368408
  Au      7.667863      5.161174      8.726154
  Au      3.879049      7.710049      7.188665
  Au      4.565536      8.761601      9.663904
  Au      5.098018      8.749597      4.799151
  Fe      6.478276      7.625818      8.187794
17
Coordinates from ORCA-job pbe E -3436.760038027199
  Au      8.034863      9.947052      8.184168
  Au      7.252829      8.649871     10.542509
  Au      9.179766      7.494538      8.874056
  Au      7.431612      7.217910      5.175763
  Au      9.644180      8.560385      6.265163
  Au      9.394537      5.850720      6.632438
  Au      7.455193     10.008348      5.463950
  Au      5.396236     10.051615      7.337744
  Au      7.059369      4.556769      5.988821
  Au      4.888014      6.031784      5.190805
  Au      5.013652      5.264187      7.861637
  Au      5.718127      6.278111     10.377674
  Au      7.671713      5.161365      8.713282
  Au      3.882043      7.703262      7.177121
  Au      4.567346      8.759234      9.675326
  Au      5.103622      8.745009      4.814100
  Fe      6.479497      7.625840      8.176093
17
Coordinates from ORCA-job pbe E -3436.760338241316
  Au      8.032637      9.949335      8.189470
  Au      7.254927      8.649331     10.534526
  Au      9.173573      7.497514      8.877166
  Au      7.432522      7.217436      5.174604
  Au      9.649924      8.563380      6.268492
  Au      9.396874      5.849433      6.630509
  Au      7.457561     10.009597      5.462637
  Au      5.396386     10.049454      7.344443
  Au      7.058645      4.550658      5.991278
  Au      4.887319      6.029388      5.189243
  Au      5.010762      5.265031      7.866832
  Au      5.721060      6.277369     10.369758
  Au      7.665885      5.164840      8.715858
  Au      3.883262      7.703288      7.183957
  Au      4.571871      8.756553      9.667239
  Au      5.099450      8.747215      4.817436
  Fe      6.479939      7.626178      8.167203
17
Coordinates from ORCA-job pbe E -3436.760690317064
  Au      8.031546      9.958634      8.197156
  Au      7.257514      8.648735     10.525646
  Au      9.165345      7.501691      8.878510
  Au      7.432886      7.216951      5.177840
  Au      9.658004      8.567489      6.276575
  Au      9.397693      5.849594      6.625846
  Au      7.462368     10.006266      5.459707
  Au      5.395767     10.050234      7.350680
  Au      7.057541      4.542253      5.997246
  Au      4.891044      6.026648      5.186181
  Au      5.001433      5.262235      7.873381
  Au      5.725993      6.276716     10.361342
  Au      7.658667      5.168503      8.716172
  Au      3.880984      7.702815      7.190427
  Au      4.578674      8.751827      9.663965
  Au      5.095398      8.748809      4.826099
  Fe      6.481740      7.626603      8.143877
17
Coordinates from ORCA-job pbe E -3436.761064154628
  Au      8.031491      9.973829      8.203255
  Au      7.255509      8.645705     10.518010
  Au      9.160384      7.508351      8.877053
  Au      7.432517      7.216349      5.186952
  Au      9.667605      8.574713      6.288633
  Au      9.398980      5.849586      6.620594
  Au      7.468083     10.001144      5.460788
  Au      5.393744     10.051860      7.355143
  Au      7.054098      4.531204      6.006708
  Au      4.895882      6.023413      5.187322
  Au      4.987536      5.256981      7.878250
  Au      5.732581      6.280644     10.353766
  Au      7.650932      5.167523      8.713014
  Au      3.877042      7.704009      7.194864
  Au      4.588386      8.744845      9.660786
  Au      5.090823      8.750160      4.840991
  Fe      6.487004      7.625685      8.104521
17
Coordinates from ORCA-job pbe E -3436.761312561326
  Au      8.030541      9.984228      8.210006
  Au      7.256960      8.643048     10.514690
  Au      9.158277      7.512997      8.872632
  Au      7.432706      7.215037      5.198662
  Au      9.671254      8.576502      6.298366
  Au      9.396589      5.851894      6.618853
  Au      7.471891      9.995918      5.463554
  Au      5.388189     10.057865      7.353964
  Au      7.053433      4.526942      6.014513
  Au      4.900568      6.021392      5.190153
  Au      4.977077      5.254006      7.883805
  Au      5.739304      6.281445     10.350715
  Au      7.647271      5.164811      8.707465
  Au      3.868361      7.707579      7.193302
  Au      4.594053      8.740225      9.664781
  Au      5.090803      8.749615      4.847424
  Fe      6.495320      7.622497      8.067764
17
Coordinates from ORCA-job pbe E -3436.761470426583
  Au      8.028919      9.988233      8.210495
  Au      7.252342      8.643183     10.511210
  Au      9.157791      7.505850      8.874969
  Au      7.430712      7.215731      5.203290
  Au      9.672898      8.579758      6.299729
  Au      9.399535      5.850048      6.618207
  Au      7.470805      9.996041      5.469213
  Au      5.392506     10.062521      7.357911
  Au      7.051240      4.524217      6.015119
  Au      4.899424      6.021753      5.196016
  Au      4.973245      5.254878      7.884323
  Au      5.739427      6.285959     10.346638
  Au      7.653073      5.166305      8.709422
  Au      3.865483      7.701287      7.196537
  Au      4.595823      8.739495      9.656843
  Au      5.090397      8.749231      4.853760
  Fe      6.498976      7.621511      8.046968
17
Coordinates from ORCA-job pbe E -3436.761602837463
  Au      8.032505      9.986109      8.213465
  Au      7.249117      8.644314     10.506499
  Au      9.156460      7.497426      8.876790
  Au      7.429546      7.215781      5.211216
  Au      9.669967      8.577244      6.301916
  Au      9.399808      5.850368      6.618455
  Au      7.469898      9.996667      5.476389
  Au      5.392978     10.072859      7.360687
  Au      7.052710      4.526449      6.016234
  Au      4.897842      6.021335      5.202519
  Au      4.976305      5.252574      7.887433
  Au      5.740001      6.290174     10.341612
  Au      7.660416      5.167961      8.710903
  Au      3.855724      7.696456      7.198549
  Au      4.594337      8.741126      9.651965
  Au      5.090648      8.749094      4.857915
  Fe      6.504333      7.620065      8.018102
17
Coordinates from ORCA-job pbe E -3436.761657099965
  Au      8.038383      9.978421      8.212636
  Au      7.242603      8.645783     10.506934
  Au      9.162035      7.493225      8.882501
  Au      7.426802      7.216991      5.212816
  Au      9.665322      8.575269      6.297436
  Au      9.404434      5.846721      6.619829
  Au      7.463062      9.999409      5.481461
  Au      5.391740     10.075738      7.360507
  Au      7.052743      4.530695      6.011857
  Au      4.893630      6.025803      5.208286
  Au      4.986263      5.250859      7.886524
  Au      5.736883      6.296033     10.340840
  Au      7.666095      5.163160      8.715594
  Au      3.853553      7.696097      7.198068
  Au      4.589330      8.745133      9.647420
  Au      5.092796      8.747205      4.861568
  Fe      6.506923      7.619459      8.006372
17
Coordinates from ORCA-job pbe E -3436.761680818393
  Au      8.040709      9.973687      8.211246
  Au      7.241538      8.644918     10.505731
  Au      9.162249      7.493056      8.883419
  Au      7.428128      7.216391      5.212069
  Au      9.662162      8.571321      6.296733
  Au      9.404098      5.846390      6.624716
  Au      7.463121     10.002828      5.481907
  Au      5.389636     10.077390      7.361837
  Au      7.055332      4.533706      6.011325
  Au      4.890891      6.024273      5.208000
  Au      4.991583      5.249969      7.885294
  Au      5.737688      6.298055     10.339356
  Au      7.666448      5.162710      8.716379
  Au      3.851454      7.697282      7.199582
  Au      4.588592      8.745944      9.650207
  Au      5.092181      8.748106      4.859133
  Fe      6.506787      7.619975      8.003715
17
Coordinates from ORCA-job pbe E -3436.761691573952
  Au      8.040888      9.971039      8.210639
  Au      7.243068      8.646265     10.504869
  Au      9.162620      7.493773      8.885624
  Au      7.428592      7.216305      5.209865
  Au      9.659856      8.568723      6.295073
  Au      9.404389      5.845514      6.628444
  Au      7.461806     10.004275      5.480172
  Au      5.388626     10.076021      7.362460
  Au      7.056727      4.536054      6.009591
  Au      4.889684      6.024984      5.206151
  Au      4.994261      5.250192      7.884346
  Au      5.737252      6.296757     10.337854
  Au      7.665954      5.161953      8.718311
  Au      3.852879      7.698583      7.200721
  Au      4.587234      8.747057      9.653701
  Au      5.092988      8.747593      4.858589
  Fe      6.505773      7.620913      8.004237
17
Coordinates from ORCA-job pbe E -3436.761696397803
  Au      8.040859      9.970688      8.209203
  Au      7.242517      8.646110     10.504579
  Au      9.162872      7.494319      8.887390
  Au      7.429120      7.216091      5.207943
  Au      9.658403      8.567685      6.294123
  Au      9.404690      5.844706      6.631147
  Au      7.461661     10.005579      5.478810
  Au      5.388588     10.074590      7.364006
  Au      7.057119      4.537288      6.008402
  Au      4.888915      6.024736      5.204736
  Au      4.994977      5.250147      7.882738
  Au      5.737199      6.297630     10.336843
  Au      7.665413      5.161306      8.719664
  Au      3.854734      7.698758      7.202684
  Au      4.587560      8.747298      9.655388
  Au      5.093137      8.747210      4.859367
  Fe      6.504833      7.621860      8.003625
17
Coordinates from ORCA-job pbe E -3436.761698270599
  Au      8.040673      9.971240      8.208794
  Au      7.242951      8.646474     10.504296
  Au      9.162803      7.494259      8.888051
  Au      7.429312      7.216054      5.206956
  Au      9.657737      8.567738      6.294551
  Au      9.404847      5.844431      6.632395
  Au      7.461598     10.006177      5.478126
  Au      5.389475     10.074499      7.364336
  Au      7.056835      4.537442      6.008357
  Au      4.888490      6.024413      5.203902
  Au      4.994631      5.249759      7.882118
  Au      5.737052      6.297467     10.336036
  Au      7.665285      5.161147      8.720121
  Au      3.855524      7.697778      7.203423
  Au      4.587888      8.747556      9.655998
  Au      5.093107      8.747112      4.860716
  Fe      6.504390      7.622455      8.002474
