11
E=  -1136.23847286;c=0;m=3
Au      8.402726552718081      8.654134966563619      7.137392463028370
Au      8.959554498014381      5.517018761832810     10.253336155404989
Au      6.362176535475790      5.034213377361810      9.058665981986181
Au      6.003862194189670      6.962604995899240      7.070213760372650
Au      7.370513097536260      7.693306949082600      9.520001932432599
Au      9.503737547700270      4.399877630989120      5.855433805656970
Au      8.469998611577401      3.437974613110240      8.237027636698720
Au      7.913126262301110      6.575613283337870      5.122378019792360
Au     10.868391540357131      5.129334886994100      8.305293316136099
Au     10.510064222143489      7.059217460274140      6.317295561082230
Cr      8.436262727986451      6.045875184554450      7.687728767408840
