11
Coordinates from ORCA-job pbe E -2402.478727480172
  Au      8.402727      8.654135      7.137392
  Au      8.959554      5.517019     10.253336
  Au      6.362177      5.034213      9.058666
  Au      6.003862      6.962605      7.070214
  Au      7.370513      7.693307      9.520002
  Au      9.503738      4.399878      5.855434
  Au      8.469999      3.437975      8.237028
  Au      7.913126      6.575613      5.122378
  Au     10.868392      5.129335      8.305293
  Au     10.510064      7.059217      6.317296
  Cr      8.436263      6.045875      7.687729
11
Coordinates from ORCA-job pbe E -2402.480382183960
  Au      8.422080      8.679178      7.151494
  Au      8.980636      5.502717     10.263445
  Au      6.375027      5.037035      9.101463
  Au      5.996421      6.976170      7.047347
  Au      7.327048      7.695065      9.508835
  Au      9.547217      4.398184      5.866469
  Au      8.448762      3.413414      8.222551
  Au      7.892163      6.589409      5.111970
  Au     10.876111      5.116120      8.328369
  Au     10.498620      7.055835      6.275088
  Cr      8.436330      6.046045      7.687738
11
Coordinates from ORCA-job pbe E -2402.481165856983
  Au      8.454869      8.691115      7.180125
  Au      8.998452      5.492250     10.260417
  Au      6.409517      5.047691      9.153308
  Au      6.001705      6.985800      7.029245
  Au      7.272053      7.686509      9.478186
  Au      9.601843      4.406797      5.897559
  Au      8.414403      3.401293      8.191565
  Au      7.875502      6.599146      5.114867
  Au     10.871023      5.106885      8.346657
  Au     10.464715      7.045268      6.225037
  Cr      8.436331      6.046418      7.687800
11
Coordinates from ORCA-job pbe E -2402.481384509248
  Au      8.473447      8.693020      7.198290
  Au      9.000681      5.496622     10.263241
  Au      6.414927      5.041245      9.172638
  Au      5.998694      6.983583      7.027340
  Au      7.254164      7.695330      9.472122
  Au      9.620010      4.398128      5.903277
  Au      8.395602      3.399258      8.173239
  Au      7.873188      6.594918      5.112353
  Au     10.874222      5.107888      8.347981
  Au     10.459120      7.052643      6.206450
  Cr      8.436360      6.046538      7.687837
11
Coordinates from ORCA-job pbe E -2402.481621400901
  Au      8.507727      8.695257      7.233774
  Au      9.005917      5.510832     10.259200
  Au      6.421809      5.034404      9.204092
  Au      6.000605      6.972375      7.024525
  Au      7.223812      7.706173      9.465837
  Au      9.650760      4.387960      5.909206
  Au      8.360418      3.398061      8.138299
  Au      7.868863      6.580964      5.116109
  Au     10.871769      5.116980      8.350976
  Au     10.452206      7.059381      6.174779
  Cr      8.436530      6.046786      7.687971
11
Coordinates from ORCA-job pbe E -2402.481793072712
  Au      8.543453      8.693304      7.270835
  Au      9.006483      5.533238     10.256394
  Au      6.426880      5.033278      9.230170
  Au      6.002582      6.955984      7.025766
  Au      7.197403      7.710324      9.463435
  Au      9.676497      4.382578      5.911826
  Au      8.325173      3.400460      8.100782
  Au      7.867526      6.560526      5.120125
  Au     10.870611      5.130604      8.348508
  Au     10.446880      7.061849      6.148780
  Cr      8.436927      6.047029      7.688145
11
Coordinates from ORCA-job pbe E -2402.481901716103
  Au      8.577087      8.687825      7.308800
  Au      9.011001      5.559825     10.252009
  Au      6.428659      5.033153      9.247856
  Au      6.004063      6.937636      7.027907
  Au      7.177238      7.711586      9.464859
  Au      9.696870      4.383291      5.908860
  Au      8.291035      3.406740      8.065343
  Au      7.865944      6.535073      5.122963
  Au     10.866949      5.148071      8.349472
  Au     10.444209      7.058796      6.128368
  Cr      8.437357      6.047175      7.688329
11
Coordinates from ORCA-job pbe E -2402.481925309366
  Au      8.594515      8.683324      7.325764
  Au      9.010219      5.576741     10.253575
  Au      6.430728      5.037032      9.254292
  Au      6.005958      6.928631      7.026018
  Au      7.169460      7.707234      9.468126
  Au      9.703185      4.384133      5.907566
  Au      8.276946      3.410629      8.045940
  Au      7.860657      6.519743      5.123873
  Au     10.867374      5.155465      8.347048
  Au     10.443751      7.059004      6.124346
  Cr      8.437621      6.047235      7.688221
11
Coordinates from ORCA-job pbe E -2402.481935566073
  Au      8.596854      8.682629      7.330299
  Au      9.013538      5.581381     10.254279
  Au      6.431497      5.035248      9.252571
  Au      6.005296      6.929804      7.026843
  Au      7.169007      7.707077      9.467936
  Au      9.704051      4.387168      5.905785
  Au      8.273881      3.410983      8.043389
  Au      7.860865      6.514489      5.121844
  Au     10.866159      5.156162      8.349624
  Au     10.441742      7.057160      6.123988
  Cr      8.437524      6.047070      7.688209
11
Coordinates from ORCA-job pbe E -2402.481944713882
  Au      8.597555      8.683451      7.332270
  Au      9.015684      5.585286     10.255371
  Au      6.433937      5.033700      9.251599
  Au      6.006274      6.933821      7.025426
  Au      7.168181      7.706056      9.468382
  Au      9.704589      4.388414      5.904892
  Au      8.273494      3.409986      8.041858
  Au      7.858946      6.510061      5.120281
  Au     10.864586      5.153552      8.351898
  Au     10.439818      7.057955      6.124707
  Cr      8.437351      6.046890      7.688082
11
Coordinates from ORCA-job pbe E -2402.482118300656
  Au      8.616998      8.696101      7.381204
  Au      9.051601      5.680016     10.278042
  Au      6.481658      4.999257      9.236526
  Au      6.031561      7.015169      6.997969
  Au      7.147079      7.685787      9.481887
  Au      9.720664      4.412244      5.885757
  Au      8.262794      3.391298      8.002977
  Au      7.824995      6.411855      5.093078
  Au     10.832095      5.097926      8.387334
  Au     10.397694      7.076529      6.134677
  Cr      8.433275      6.042990      7.685317
11
Coordinates from ORCA-job pbe E -2402.482250374965
  Au      8.633122      8.711030      7.439455
  Au      9.091365      5.798246     10.298918
  Au      6.537131      4.955767      9.218644
  Au      6.069995      7.119878      6.963157
  Au      7.122806      7.659970      9.500348
  Au      9.733771      4.434888      5.860993
  Au      8.261479      3.366582      7.961415
  Au      7.786652      6.296200      5.064332
  Au     10.788691      5.027650      8.427098
  Au     10.348781      7.101363      6.149206
  Cr      8.426623      6.037599      7.681202
11
Coordinates from ORCA-job pbe E -2402.482784569433
  Au      8.615091      8.726265      7.459412
  Au      9.110698      5.862417     10.309856
  Au      6.562784      4.927385      9.212034
  Au      6.105179      7.197473      6.935893
  Au      7.115941      7.648411      9.511310
  Au      9.733118      4.437830      5.847616
  Au      8.292189      3.342688      7.952653
  Au      7.765697      6.244567      5.049916
  Au     10.755342      4.962809      8.446153
  Au     10.322972      7.125745      6.161644
  Cr      8.421402      6.033580      7.678280
11
Coordinates from ORCA-job pbe E -2402.483750536578
  Au      8.583225      8.748002      7.502865
  Au      9.120949      5.952619     10.309631
  Au      6.593580      4.880741      9.264817
  Au      6.178235      7.302782      6.889424
  Au      7.069484      7.645868      9.522386
  Au      9.766383      4.416070      5.842837
  Au      8.338289      3.316217      7.923438
  Au      7.742541      6.197375      5.052256
  Au     10.697682      4.846473      8.449978
  Au     10.295001      7.173482      6.132364
  Cr      8.415046      6.029543      7.674772
11
Coordinates from ORCA-job pbe E -2402.484482138940
  Au      8.645297      8.745224      7.597955
  Au      9.146002      6.075082     10.299364
  Au      6.653547      4.841925      9.298591
  Au      6.222862      7.380913      6.859037
  Au      6.996411      7.620099      9.535980
  Au      9.803085      4.424231      5.824786
  Au      8.294437      3.306500      7.839690
  Au      7.720895      6.077861      5.047718
  Au     10.664033      4.816188      8.481434
  Au     10.246050      7.193148      6.108367
  Cr      8.407796      6.028003      7.671846
11
Coordinates from ORCA-job pbe E -2402.484347478674
  Au      8.721136      8.703480      7.651621
  Au      9.123147      6.053508     10.267354
  Au      6.661146      4.872443      9.384846
  Au      6.192691      7.313155      6.871024
  Au      6.938927      7.625849      9.513931
  Au      9.858640      4.422103      5.836502
  Au      8.203252      3.336858      7.775699
  Au      7.754635      6.087327      5.077291
  Au     10.698188      4.881541      8.469642
  Au     10.237031      7.180851      6.043061
  Cr      8.411623      6.032057      7.673796
11
Coordinates from ORCA-job pbe E -2402.485057842212
  Au      8.696228      8.714667      7.663031
  Au      9.139149      6.109560     10.273253
  Au      6.712693      4.828703      9.375569
  Au      6.246253      7.407031      6.834189
  Au      6.924517      7.614869      9.520360
  Au      9.864233      4.431830      5.835409
  Au      8.229618      3.326001      7.780680
  Au      7.727982      6.038298      5.070487
  Au     10.656546      4.805584      8.484592
  Au     10.197511      7.201672      6.054779
  Cr      8.405683      6.030956      7.672419
11
Coordinates from ORCA-job pbe E -2402.485138892714
  Au      8.687423      8.720277      7.676857
  Au      9.146290      6.134854     10.270341
  Au      6.729997      4.819043      9.390383
  Au      6.270276      7.449636      6.817636
  Au      6.913624      7.599901      9.520032
  Au      9.865746      4.436738      5.833905
  Au      8.247938      3.322362      7.772011
  Au      7.721506      6.012816      5.066920
  Au     10.632478      4.770274      8.497265
  Au     10.182006      7.212251      6.047045
  Cr      8.403130      6.031019      7.672374
11
Coordinates from ORCA-job pbe E -2402.485211237528
  Au      8.693457      8.715440      7.682651
  Au      9.144393      6.129442     10.268920
  Au      6.729957      4.822092      9.402136
  Au      6.266721      7.440992      6.813340
  Au      6.912977      7.596811      9.513849
  Au      9.873815      4.443162      5.835452
  Au      8.237307      3.328973      7.770150
  Au      7.722103      6.017739      5.069476
  Au     10.635774      4.773298      8.498122
  Au     10.180460      7.209815      6.037283
  Cr      8.403449      6.031408      7.673388
11
Coordinates from ORCA-job pbe E -2402.485264015307
  Au      8.709140      8.710468      7.699280
  Au      9.154569      6.141403     10.267177
  Au      6.741683      4.813957      9.425297
  Au      6.277753      7.453351      6.798334
  Au      6.895810      7.586755      9.502832
  Au      9.889884      4.452926      5.838305
  Au      8.223687      3.334920      7.755875
  Au      7.714238      6.004071      5.071581
  Au     10.627525      4.761067      8.508351
  Au     10.164170      7.218349      6.022654
  Cr      8.401953      6.031905      7.675081
11
Coordinates from ORCA-job pbe E -2402.485288369180
  Au      8.711417      8.711615      7.707803
  Au      9.160151      6.148416     10.266788
  Au      6.747917      4.806815      9.435361
  Au      6.283489      7.464025      6.788907
  Au      6.894786      7.577476      9.493856
  Au      9.893373      4.461888      5.840572
  Au      8.219896      3.338354      7.753736
  Au      7.709616      5.995795      5.069604
  Au     10.621436      4.749216      8.516726
  Au     10.157720      7.223901      6.015007
  Cr      8.400611      6.031672      7.676407
11
Coordinates from ORCA-job pbe E -2402.485298289945
  Au      8.714278      8.714156      7.712195
  Au      9.164651      6.155932     10.266195
  Au      6.752665      4.801364      9.441088
  Au      6.286901      7.470814      6.782213
  Au      6.893213      7.573502      9.491278
  Au      9.894327      4.464897      5.843920
  Au      8.217843      3.337074      7.748549
  Au      7.707957      5.989605      5.068137
  Au     10.617033      4.740831      8.521544
  Au     10.151865      7.229644      6.012444
  Cr      8.399679      6.031354      7.677204
11
Coordinates from ORCA-job pbe E -2402.485302749546
  Au      8.711548      8.716941      7.709004
  Au      9.166222      6.155100     10.266332
  Au      6.754092      4.799842      9.441914
  Au      6.286601      7.470737      6.781617
  Au      6.896583      7.573367      9.488615
  Au      9.891501      4.465402      5.846453
  Au      8.216997      3.334588      7.749144
  Au      7.710371      5.992136      5.066461
  Au     10.616991      4.736537      8.524343
  Au     10.149853      7.233687      6.012988
  Cr      8.399654      6.030836      7.677897
11
Coordinates from ORCA-job pbe E -2402.485304864083
  Au      8.712021      8.719179      7.711515
  Au      9.166704      6.158878     10.266344
  Au      6.758290      4.798042      9.443817
  Au      6.287943      7.470816      6.779883
  Au      6.895671      7.573501      9.488934
  Au      9.892299      4.465146      5.848649
  Au      8.213459      3.332735      7.745021
  Au      7.710957      5.991178      5.065554
  Au     10.615888      4.733781      8.526302
  Au     10.147532      7.235344      6.010507
  Cr      8.399651      6.030573      7.678242
11
Coordinates from ORCA-job pbe E -2402.485306411974
  Au      8.711051      8.719105      7.709524
  Au      9.166369      6.157271     10.266612
  Au      6.758198      4.799679      9.443429
  Au      6.286295      7.467147      6.780946
  Au      6.897393      7.574595      9.489605
  Au      9.891817      4.465608      5.849188
  Au      8.212884      3.332494      7.745308
  Au      7.712762      5.993941      5.064697
  Au     10.615694      4.733848      8.526341
  Au     10.147892      7.235071      6.010795
  Cr      8.400059      6.030414      7.678322
