17
E=  -1817.53128215;c=0;m=5
Au     11.144725534526099      6.081283364908250      7.148567229689200
Au      5.430512424470010      9.149400470581140     10.600554975006521
Au      7.413254343860330      7.073591148387550     10.935151972620581
Au      9.418365174241970      6.667095295995970      9.174110866880900
Au      9.566041899010370      8.308174278516720      6.813391692741070
Au      7.474357790353840      9.981019956224550      6.248938550788340
Au      5.141822860368710      9.750088832051560      7.906587616042310
Au      7.773572475895160      9.072056997927680      8.911876044536021
Au      5.144050353605610      8.685027044076390      5.310938604082780
Au      7.602672007887250      7.443039930801980      4.842219300456930
Au      8.538582666295600      5.458453774369170      6.595126456097720
Au      4.688649148994120      6.448097709510120     11.126800597992039
Au      3.564390468972810      7.414732390638880      7.227430941278510
Au      7.069825731455680      4.958083643449490      8.996217768531880
Au      5.856898849043010      5.967118120257470      6.485696320300080
Au      4.240505310081540      5.115518248048640      8.676655248124121
Fe      5.669463500937870      7.260807034254440      8.869785554830980
