17
E=  -1788.53043362;c=0;m=3
Au      6.937121907741640      8.862094401308610      5.459889437962740
Au      5.456420634985560      5.867268599327910      9.630298065212401
Au     10.329770589333931      8.181078898064760      8.655841754686790
Au      8.055634030399050      6.867845775692570      9.486297775635020
Au      7.176344081232590      4.832092137735840      7.692309999908510
Au     11.946645104942821      9.867715572306199      7.228236516044890
Au      9.437167087130289      9.635670294878009      6.172366817503110
Au      8.764136714521619      6.918449615221550      6.645403413505060
Au      6.596332502124870      5.919208294783920      5.174368328953810
Au      4.401304484574800      7.601096423764250      5.328794993708790
Au      7.243432704783110     10.673837805167940      7.914269434847440
Au      4.783344404104670      9.693450089806079      7.155644929245140
Au      3.600375815936860      7.252087917513020      8.064535891582400
Au      9.868964551239671     11.146340914474269      8.582916065919800
Au      8.391183558416090      9.545174295137800     10.318063072245479
Au      5.757946220328290      8.715701252738350      9.593749984941320
Cr      6.098765008204780      7.205254332076700      7.404084538100050
