%pal nprocs 4 end 

!PBE def2-TZVP OPT UNO
!SLOWCONV KDIIS 

%geom maxiter 300 end

*xyz 0 3 
  Au     6.925415    8.934746    5.364537
  Au     5.478501    5.924576    9.673877
  Au    10.285475    8.158185    8.622450
  Au     8.094350    6.831043    9.538817
  Au     7.159739    4.876774    7.693805
  Au    11.920646    9.858590    7.228404
  Au     9.423143    9.565001    6.168159
  Au     8.837301    6.889217    6.643338
  Au     6.647107    6.005127    5.175555
  Au     4.433018    7.645100    5.327008
  Au     7.246177   10.437674    7.824940
  Au     4.709251    9.690320    7.209291
  Au     3.631181    7.198855    8.034229
  Au     9.810703   11.090343    8.570577
  Au     8.320683    9.507586   10.236034
  Au     5.678852    8.765541    9.719818
  Cr     6.243347    7.405690    7.476231
*
