17
Coordinates from ORCA-job pbe E -3217.500250164178
  Au      6.925415      8.934746      5.364537
  Au      5.478501      5.924576      9.673877
  Au     10.285475      8.158185      8.622450
  Au      8.094350      6.831043      9.538817
  Au      7.159739      4.876774      7.693805
  Au     11.920646      9.858590      7.228404
  Au      9.423143      9.565001      6.168159
  Au      8.837301      6.889217      6.643338
  Au      6.647107      6.005127      5.175555
  Au      4.433018      7.645100      5.327008
  Au      7.246177     10.437674      7.824940
  Au      4.709251      9.690320      7.209291
  Au      3.631181      7.198855      8.034229
  Au      9.810703     11.090343      8.570577
  Au      8.320683      9.507586     10.236034
  Au      5.678852      8.765541      9.719818
  Cr      6.243347      7.405690      7.476231
17
Coordinates from ORCA-job pbe E -3217.500250565030
  Au      6.925413      8.934431      5.364489
  Au      5.477974      5.924177      9.673813
  Au     10.285727      8.158260      8.622522
  Au      8.094203      6.831148      9.538496
  Au      7.159785      4.876459      7.693826
  Au     11.921072      9.859096      7.228440
  Au      9.423322      9.565391      6.168209
  Au      8.837618      6.888850      6.643209
  Au      6.647123      6.005434      5.175565
  Au      4.432847      7.644699      5.327319
  Au      7.246113     10.437669      7.824990
  Au      4.708973      9.690517      7.209081
  Au      3.631071      7.199286      8.034658
  Au      9.810933     11.090143      8.570750
  Au      8.320786      9.507588     10.235779
  Au      5.678642      8.765627      9.719671
  Cr      6.243287      7.405595      7.476254
