13
E=  -1353.57889982;c=0;m=3
Au     10.140950054609760      4.883132088804730      9.266870447276810
Au      9.487249542049121      5.167287555257760     11.897956151385779
Au      7.266046083785490      4.890273213690230     10.210284921863259
Au      7.301093572104480      5.928594519500510      5.200158148955510
Au      6.513220923714410      5.090767764776960      7.644149431149170
Au      9.867953419264211      5.418812416193990      6.721412321703040
Au      9.695452031626489      8.645831308582601      8.050987525627789
Au      9.691694798158419      7.599704682565580     10.520339076078820
Au      6.720422075029750      7.867102159043330      9.948886022047139
Au      6.897158604516020      8.029566175952819      7.142826487909170
Au      9.769983171756561      5.818251513155270      3.998577493393930
Au      9.236652734295591      8.091155765713919      5.447478573814170
Cr      8.375274339089669      6.540709946762270      8.593748358795430
