13
Coordinates from ORCA-job pbe E -2674.141772887162
  Au     10.140950      4.883132      9.266870
  Au      9.487250      5.167288     11.897956
  Au      7.266046      4.890273     10.210285
  Au      7.301094      5.928595      5.200158
  Au      6.513221      5.090768      7.644149
  Au      9.867953      5.418812      6.721412
  Au      9.695452      8.645831      8.050988
  Au      9.691695      7.599705     10.520339
  Au      6.720422      7.867102      9.948886
  Au      6.897159      8.029566      7.142826
  Au      9.769983      5.818252      3.998577
  Au      9.236653      8.091156      5.447479
  Cr      8.375274      6.540710      8.593748
13
Coordinates from ORCA-job pbe E -2674.144211773906
  Au     10.165810      4.858293      9.287927
  Au      9.460207      5.192550     11.891984
  Au      7.265944      4.888210     10.229868
  Au      7.308035      5.946811      5.229212
  Au      6.510469      5.070431      7.616421
  Au      9.882034      5.408274      6.701457
  Au      9.718045      8.653930      8.026670
  Au      9.691649      7.597620     10.539849
  Au      6.716223      7.872757      9.932079
  Au      6.909258      8.020840      7.125084
  Au      9.732619      5.850948      4.006111
  Au      9.216371      8.078814      5.473296
  Cr      8.386486      6.531711      8.583717
13
Coordinates from ORCA-job pbe E -2674.145928844471
  Au     10.197277      4.830188      9.282815
  Au      9.438391      5.214355     11.881840
  Au      7.250871      4.889729     10.241961
  Au      7.304566      5.955776      5.247176
  Au      6.485646      5.038027      7.624829
  Au      9.913659      5.379324      6.702485
  Au      9.745614      8.680453      8.042277
  Au      9.687315      7.610739     10.553010
  Au      6.709901      7.878990      9.924207
  Au      6.905764      8.025157      7.115064
  Au      9.722610      5.865220      3.961386
  Au      9.205772      8.079216      5.490482
  Cr      8.395764      6.524015      8.576142
13
Coordinates from ORCA-job pbe E -2674.147504201849
  Au     10.225048      4.809494      9.242503
  Au      9.434211      5.224861     11.825471
  Au      7.225878      4.899129     10.224489
  Au      7.329041      5.953698      5.291079
  Au      6.454600      5.009718      7.645287
  Au      9.939263      5.356064      6.701833
  Au      9.766888      8.711968      8.069963
  Au      9.677516      7.636604     10.537146
  Au      6.705120      7.884705      9.908241
  Au      6.892270      8.037221      7.116182
  Au      9.705996      5.875795      3.995922
  Au      9.206481      8.050115      5.530837
  Cr      8.400839      6.521818      8.554724
13
Coordinates from ORCA-job pbe E -2674.148520790380
  Au     10.241637      4.796375      9.226261
  Au      9.423295      5.239348     11.780024
  Au      7.207514      4.915264     10.213328
  Au      7.331542      5.935321      5.340118
  Au      6.429479      4.988038      7.659298
  Au      9.970111      5.330624      6.677617
  Au      9.782982      8.738377      8.089042
  Au      9.660973      7.654349     10.526111
  Au      6.709489      7.882522      9.890720
  Au      6.871287      8.053425      7.140822
  Au      9.706495      5.875664      3.988684
  Au      9.220134      8.043924      5.580494
  Cr      8.408214      6.517957      8.531156
13
Coordinates from ORCA-job pbe E -2674.149407585654
  Au     10.251862      4.789691      9.204026
  Au      9.418235      5.243807     11.782002
  Au      7.191377      4.935121     10.216773
  Au      7.351093      5.922175      5.370548
  Au      6.402122      4.975438      7.667105
  Au      9.999353      5.307469      6.642903
  Au      9.790498      8.766643      8.101221
  Au      9.638800      7.667704     10.528498
  Au      6.720616      7.872470      9.887991
  Au      6.851019      8.070631      7.153597
  Au      9.698080      5.883985      3.975882
  Au      9.233118      8.022826      5.609637
  Cr      8.416980      6.513229      8.503491
13
Coordinates from ORCA-job pbe E -2674.150598201892
  Au     10.241343      4.800766      9.188858
  Au      9.428226      5.236662     11.766142
  Au      7.189412      4.965772     10.230050
  Au      7.373847      5.911644      5.397620
  Au      6.377171      4.976320      7.673650
  Au     10.026188      5.285308      6.621424
  Au      9.785418      8.791357      8.110530
  Au      9.605857      7.664880     10.537607
  Au      6.736078      7.857705      9.896463
  Au      6.835193      8.085696      7.152074
  Au      9.696213      5.886554      3.961035
  Au      9.243825      7.998460      5.634571
  Cr      8.424380      6.510064      8.473652
13
Coordinates from ORCA-job pbe E -2674.151825100576
  Au     10.214925      4.824078      9.188790
  Au      9.449260      5.215901     11.782951
  Au      7.197703      4.996520     10.236667
  Au      7.391930      5.905834      5.418356
  Au      6.360593      4.989853      7.683478
  Au     10.046682      5.268436      6.604507
  Au      9.768686      8.805455      8.119926
  Au      9.574264      7.653219     10.538927
  Au      6.755692      7.840047      9.902815
  Au      6.828252      8.094436      7.135604
  Au      9.692921      5.891715      3.942054
  Au      9.249639      7.978698      5.653682
  Cr      8.432604      6.506999      8.435916
13
Coordinates from ORCA-job pbe E -2674.152985169205
  Au     10.189349      4.846511      9.187965
  Au      9.471518      5.195493     11.791479
  Au      7.221424      5.019994     10.242351
  Au      7.406443      5.894452      5.435970
  Au      6.339484      5.003641      7.696951
  Au     10.063764      5.253489      6.599138
  Au      9.750867      8.823345      8.133844
  Au      9.551975      7.627087     10.539098
  Au      6.764492      7.833848      9.893455
  Au      6.815036      8.108233      7.123789
  Au      9.690872      5.894343      3.937147
  Au      9.260560      7.962985      5.670718
  Cr      8.437369      6.507768      8.391769
13
Coordinates from ORCA-job pbe E -2674.154409961896
  Au     10.169412      4.862996      9.195778
  Au      9.496721      5.170284     11.812659
  Au      7.257320      5.033631     10.240724
  Au      7.411027      5.886522      5.453751
  Au      6.320070      5.018469      7.712419
  Au     10.074833      5.242872      6.604663
  Au      9.731758      8.838893      8.149005
  Au      9.542619      7.591169     10.532053
  Au      6.762223      7.839789      9.864493
  Au      6.803115      8.121410      7.104822
  Au      9.687822      5.896952      3.943354
  Au      9.266673      7.956584      5.688933
  Cr      8.439557      6.511619      8.341021
13
Coordinates from ORCA-job pbe E -2674.156005575027
  Au     10.166571      4.863689      9.208700
  Au      9.515202      5.151267     11.833745
  Au      7.295962      5.044070     10.232722
  Au      7.408343      5.880381      5.470273
  Au      6.299872      5.026069      7.732720
  Au     10.083587      5.234368      6.612391
  Au      9.719076      8.855236      8.170369
  Au      9.538384      7.553231     10.519207
  Au      6.755002      7.851424      9.822270
  Au      6.787924      8.137073      7.087561
  Au      9.683102      5.899845      3.958632
  Au      9.270193      7.957288      5.706401
  Cr      8.439934      6.517249      8.288686
13
Coordinates from ORCA-job pbe E -2674.157390375791
  Au     10.174744      4.856087      9.208162
  Au      9.526569      5.138640     11.852552
  Au      7.326881      5.060884     10.223307
  Au      7.403030      5.872510      5.492679
  Au      6.278351      5.030964      7.750339
  Au     10.095028      5.223496      6.619196
  Au      9.709170      8.873196      8.189290
  Au      9.527357      7.522575     10.504303
  Au      6.756811      7.854086      9.788733
  Au      6.770016      8.154883      7.069906
  Au      9.680288      5.900850      3.977485
  Au      9.274571      7.960413      5.730547
  Cr      8.440334      6.522606      8.237175
13
Coordinates from ORCA-job pbe E -2674.158485826832
  Au     10.177268      4.852479      9.218422
  Au      9.535104      5.128981     11.867463
  Au      7.355764      5.081947     10.217820
  Au      7.400604      5.864048      5.507842
  Au      6.257274      5.033369      7.772238
  Au     10.111578      5.209741      6.614235
  Au      9.701488      8.891089      8.213006
  Au      9.511464      7.492224     10.493219
  Au      6.764732      7.849828      9.767596
  Au      6.751997      8.173410      7.047283
  Au      9.674838      5.904690      3.988107
  Au      9.280460      7.961627      5.746720
  Cr      8.440583      6.527756      8.189725
13
Coordinates from ORCA-job pbe E -2674.159168084458
  Au     10.175823      4.854867      9.211750
  Au      9.551646      5.113125     11.876390
  Au      7.378502      5.094439     10.216549
  Au      7.399497      5.852558      5.522766
  Au      6.237960      5.039759      7.787033
  Au     10.123695      5.198226      6.619830
  Au      9.691068      8.907568      8.229203
  Au      9.502442      7.468505     10.487812
  Au      6.764421      7.852340      9.746224
  Au      6.736807      8.189333      7.028596
  Au      9.674108      5.903833      4.001292
  Au      9.289927      7.961755      5.763173
  Cr      8.437255      6.534883      8.153057
13
Coordinates from ORCA-job pbe E -2674.159670994152
  Au     10.177488      4.854324      9.211733
  Au      9.562475      5.102817     11.882490
  Au      7.396974      5.105868     10.214309
  Au      7.397188      5.840961      5.539023
  Au      6.223310      5.044450      7.807135
  Au     10.138552      5.184953      6.617973
  Au      9.682430      8.918693      8.250218
  Au      9.493939      7.449007     10.481828
  Au      6.765581      7.853712      9.721507
  Au      6.725419      8.202272      7.006149
  Au      9.666804      5.909283      4.009624
  Au      9.299536      7.962887      5.781509
  Cr      8.433456      6.541963      8.120178
13
Coordinates from ORCA-job pbe E -2674.159997771014
  Au     10.177131      4.857673      9.200213
  Au      9.574526      5.091396     11.885450
  Au      7.408625      5.116549     10.218337
  Au      7.395588      5.823748      5.558176
  Au      6.211530      5.051104      7.824338
  Au     10.153980      5.171547      6.614850
  Au      9.672904      8.927780      8.268333
  Au      9.484648      7.434905     10.483186
  Au      6.767372      7.854262      9.697127
  Au      6.717272      8.212807      6.981255
  Au      9.656783      5.916737      4.016494
  Au      9.314071      7.963206      5.802691
  Cr      8.428721      6.549475      8.093225
13
Coordinates from ORCA-job pbe E -2674.160156537648
  Au     10.168872      4.865899      9.201086
  Au      9.586495      5.079987     11.887595
  Au      7.420432      5.127516     10.226200
  Au      7.400850      5.805566      5.570049
  Au      6.198818      5.059333      7.846060
  Au     10.165968      5.161530      6.601334
  Au      9.660869      8.935684      8.288803
  Au      9.474074      7.421707     10.486977
  Au      6.771210      7.853287      9.678028
  Au      6.712069      8.219904      6.956892
  Au      9.645263      5.928559      4.013552
  Au      9.331697      7.958257      5.817767
  Cr      8.426535      6.553961      8.069332
13
Coordinates from ORCA-job pbe E -2674.160254935823
  Au     10.174949      4.863069      9.191181
  Au      9.595092      5.072652     11.886382
  Au      7.420176      5.133359     10.235552
  Au      7.392937      5.785740      5.576868
  Au      6.198002      5.063710      7.859515
  Au     10.169907      5.159213      6.598582
  Au      9.655853      8.934892      8.303250
  Au      9.467975      7.418450     10.496156
  Au      6.771113      7.854932      9.656209
  Au      6.714562      8.220599      6.932377
  Au      9.632043      5.938833      4.017411
  Au      9.349144      7.966206      5.827073
  Cr      8.421401      6.559534      8.063117
13
Coordinates from ORCA-job pbe E -2674.160326297134
  Au     10.167377      4.870496      9.182651
  Au      9.602594      5.066564     11.877208
  Au      7.414570      5.136264     10.244395
  Au      7.399966      5.774417      5.586491
  Au      6.195338      5.067230      7.864330
  Au     10.170055      5.159663      6.592553
  Au      9.651652      8.936728      8.307271
  Au      9.463241      7.422925     10.504873
  Au      6.769868      7.857110      9.650275
  Au      6.720371      8.215966      6.923946
  Au      9.625525      5.946087      4.009074
  Au      9.359938      7.959338      5.837324
  Cr      8.422656      6.558401      8.063284
13
Coordinates from ORCA-job pbe E -2674.160395710553
  Au     10.162472      4.874577      9.179222
  Au      9.606492      5.062766     11.875121
  Au      7.414210      5.140121     10.255404
  Au      7.402043      5.760669      5.584923
  Au      6.197532      5.073309      7.872004
  Au     10.160429      5.169123      6.585321
  Au      9.645304      8.932572      8.312816
  Au      9.458034      7.422468     10.514768
  Au      6.769658      7.858694      9.644447
  Au      6.731139      8.206583      6.912190
  Au      9.618040      5.954857      4.000596
  Au      9.373925      7.958881      5.837993
  Cr      8.423874      6.556570      8.068871
13
Coordinates from ORCA-job pbe E -2674.160420132475
  Au     10.164727      4.872200      9.176951
  Au      9.615954      5.055962     11.867728
  Au      7.408555      5.145215     10.259980
  Au      7.405523      5.753903      5.586761
  Au      6.195557      5.075347      7.876045
  Au     10.156829      5.173454      6.582264
  Au      9.642694      8.934634      8.318119
  Au      9.452300      7.426100     10.520178
  Au      6.764797      7.863242      9.639712
  Au      6.735564      8.203042      6.907460
  Au      9.615584      5.956694      3.995943
  Au      9.380904      7.955506      5.839422
  Cr      8.424162      6.555888      8.073114
13
Coordinates from ORCA-job pbe E -2674.160440940557
  Au     10.168545      4.868429      9.176298
  Au      9.617362      5.054568     11.868086
  Au      7.412927      5.148456     10.261335
  Au      7.405448      5.751438      5.586737
  Au      6.194939      5.077408      7.880247
  Au     10.153314      5.175902      6.582467
  Au      9.639804      8.933603      8.320633
  Au      9.449042      7.422522     10.519980
  Au      6.761153      7.867803      9.634686
  Au      6.738034      8.200399      6.903385
  Au      9.614014      5.959361      3.993793
  Au      9.384190      7.956006      5.841533
  Cr      8.424379      6.555296      8.074496
13
Coordinates from ORCA-job pbe E -2674.160459567509
  Au     10.172987      4.864637      9.175304
  Au      9.619898      5.051971     11.868853
  Au      7.416421      5.154214     10.259647
  Au      7.405915      5.749130      5.589334
  Au      6.194546      5.080616      7.880377
  Au     10.152778      5.177481      6.582889
  Au      9.636163      8.935513      8.323230
  Au      9.445382      7.417656     10.518284
  Au      6.756009      7.872038      9.632747
  Au      6.738952      8.200069      6.902160
  Au      9.612675      5.958792      3.991980
  Au      9.386080      7.954481      5.842498
  Cr      8.425346      6.554591      8.076372
13
Coordinates from ORCA-job pbe E -2674.160471522073
  Au     10.177087      4.860937      9.173213
  Au      9.622937      5.049840     11.866516
  Au      7.418048      5.158130     10.258444
  Au      7.408626      5.749033      5.590185
  Au      6.190428      5.082232      7.881966
  Au     10.153530      5.174139      6.582159
  Au      9.632844      8.937207      8.320604
  Au      9.439975      7.417813     10.515282
  Au      6.752752      7.876743      9.633406
  Au      6.737969      8.199549      6.903518
  Au      9.614145      5.960448      3.991461
  Au      9.388376      7.952378      5.847295
  Cr      8.426434      6.552741      8.079625
13
Coordinates from ORCA-job pbe E -2674.160483359326
  Au     10.178239      4.860427      9.172494
  Au      9.621787      5.050901     11.864672
  Au      7.416987      5.159479     10.257082
  Au      7.409282      5.748862      5.592899
  Au      6.189615      5.083738      7.879908
  Au     10.156968      5.171866      6.580704
  Au      9.631081      8.939679      8.321524
  Au      9.439807      7.418056     10.514315
  Au      6.752029      7.876650      9.634101
  Au      6.738924      8.199268      6.904932
  Au      9.612033      5.960752      3.991284
  Au      9.388048      7.950432      5.847976
  Cr      8.428352      6.551080      8.081783
13
Coordinates from ORCA-job pbe E -2674.160497881669
  Au     10.178685      4.860526      9.172033
  Au      9.621221      5.052235     11.863094
  Au      7.414335      5.159666     10.255651
  Au      7.409620      5.748762      5.595050
  Au      6.187460      5.087159      7.878646
  Au     10.161425      5.167837      6.577951
  Au      9.626647      8.943216      8.321525
  Au      9.440109      7.419156     10.514257
  Au      6.753352      7.875332      9.634064
  Au      6.741521      8.197766      6.905251
  Au      9.609086      5.962284      3.992183
  Au      9.387985      7.949291      5.849213
  Cr      8.431706      6.547959      8.084757
13
Coordinates from ORCA-job pbe E -2674.160511529024
  Au     10.180278      4.859966      9.171210
  Au      9.619865      5.052033     11.860922
  Au      7.413286      5.159258     10.255986
  Au      7.409172      5.747971      5.596714
  Au      6.183451      5.092050      7.879029
  Au     10.165046      5.164185      6.575469
  Au      9.620255      8.947331      8.322710
  Au      9.440442      7.421494     10.513752
  Au      6.755817      7.873872      9.632332
  Au      6.744019      8.195960      6.904298
  Au      9.606983      5.963770      3.993777
  Au      9.388822      7.948823      5.850920
  Cr      8.435714      6.544475      8.086556
13
Coordinates from ORCA-job pbe E -2674.160531176885
  Au     10.181697      4.858560      9.171207
  Au      9.620143      5.053848     11.860327
  Au      7.412145      5.156928     10.255028
  Au      7.407467      5.747549      5.596903
  Au      6.178567      5.098595      7.881154
  Au     10.167053      5.161147      6.574319
  Au      9.611766      8.951580      8.323837
  Au      9.442222      7.421541     10.514178
  Au      6.759752      7.871093      9.629434
  Au      6.746159      8.194862      6.902358
  Au      9.606435      5.964253      3.996634
  Au      9.389908      7.950439      5.852454
  Cr      8.439839      6.540793      8.085843
13
Coordinates from ORCA-job pbe E -2674.160557707274
  Au     10.183811      4.856671      9.172863
  Au      9.619134      5.053278     11.861691
  Au      7.413985      5.152074     10.254438
  Au      7.403892      5.747304      5.595264
  Au      6.173185      5.107415      7.883752
  Au     10.166628      5.160368      6.576179
  Au      9.601191      8.955451      8.324984
  Au      9.446236      7.422328     10.513078
  Au      6.765168      7.867393      9.626488
  Au      6.746631      8.194988      6.900382
  Au      9.608782      5.962129      4.000579
  Au      9.390531      7.953908      5.852342
  Cr      8.443978      6.537881      8.081635
13
Coordinates from ORCA-job pbe E -2674.160576210504
  Au     10.187587      4.852222      9.174833
  Au      9.617518      5.056496     11.863234
  Au      7.414955      5.151031     10.252113
  Au      7.402541      5.748840      5.594396
  Au      6.169298      5.114594      7.883860
  Au     10.166342      5.159465      6.577086
  Au      9.592695      8.958525      8.323714
  Au      9.446725      7.421394     10.511642
  Au      6.768280      7.864588      9.626954
  Au      6.747069      8.194667      6.903576
  Au      9.610679      5.960742      4.000584
  Au      9.390301      7.955119      5.852462
  Cr      8.449160      6.533506      8.079222
13
Coordinates from ORCA-job pbe E -2674.160588569407
  Au     10.189512      4.849921      9.173744
  Au      9.622174      5.053466     11.861079
  Au      7.416783      5.150251     10.250884
  Au      7.402965      5.744162      5.597499
  Au      6.163693      5.124923      7.888688
  Au     10.167476      5.157967      6.579535
  Au      9.580911      8.962652      8.328020
  Au      9.447853      7.419840     10.510743
  Au      6.767465      7.865125      9.622551
  Au      6.747121      8.195565      6.899249
  Au      9.610377      5.960644      4.002073
  Au      9.395247      7.954465      5.856143
  Cr      8.451575      6.532209      8.073467
13
Coordinates from ORCA-job pbe E -2674.160600319155
  Au     10.192228      4.847867      9.174049
  Au      9.621444      5.052124     11.861290
  Au      7.418023      5.153833     10.251750
  Au      7.402496      5.742456      5.599228
  Au      6.160767      5.131239      7.888399
  Au     10.170999      5.155078      6.576952
  Au      9.573781      8.965902      8.328249
  Au      9.444684      7.419401     10.510529
  Au      6.768642      7.864216      9.621237
  Au      6.749481      8.193877      6.899698
  Au      9.607814      5.962265      4.001844
  Au      9.396430      7.954350      5.857373
  Cr      8.456362      6.528582      8.073077
13
Coordinates from ORCA-job pbe E -2674.160608150024
  Au     10.193906      4.846127      9.172573
  Au      9.623861      5.050808     11.859423
  Au      7.418494      5.156118     10.252319
  Au      7.402682      5.737588      5.601826
  Au      6.156770      5.139226      7.891829
  Au     10.174190      5.152104      6.575028
  Au      9.564830      8.968880      8.331286
  Au      9.442796      7.418159     10.510881
  Au      6.768529      7.864164      9.618053
  Au      6.751602      8.192640      6.896553
  Au      9.605080      5.964687      4.002751
  Au      9.400933      7.954368      5.860405
  Cr      8.459479      6.526321      8.070747
13
Coordinates from ORCA-job pbe E -2674.160613548300
  Au     10.194741      4.844862      9.170789
  Au      9.627169      5.048222     11.857368
  Au      7.419114      5.157888     10.253541
  Au      7.403032      5.730784      5.603964
  Au      6.152785      5.148391      7.895975
  Au     10.176993      5.149794      6.573607
  Au      9.555264      8.971190      8.334676
  Au      9.441918      7.416918     10.511307
  Au      6.767452      7.864658      9.614987
  Au      6.753942      8.191078      6.892533
  Au      9.602631      5.967115      4.004079
  Au      9.406463      7.955243      5.862964
  Cr      8.461647      6.525048      8.067885
13
Coordinates from ORCA-job pbe E -2674.160615021078
  Au     10.195745      4.843270      9.170225
  Au      9.627714      5.047961     11.857101
  Au      7.419565      5.159699     10.254476
  Au      7.402881      5.727557      5.604992
  Au      6.150076      5.154039      7.898204
  Au     10.178640      5.148473      6.572152
  Au      9.549578      8.972722      8.335911
  Au      9.440651      7.415866     10.511450
  Au      6.768186      7.863686      9.613510
  Au      6.755594      8.189454      6.891608
  Au      9.601589      5.968698      4.004410
  Au      9.408865      7.956466      5.864125
  Cr      8.464067      6.523298      8.065512
13
Coordinates from ORCA-job pbe E -2674.160615955001
  Au     10.195329      4.843320      9.169576
  Au      9.628516      5.047128     11.856477
  Au      7.419450      5.159880     10.254870
  Au      7.403264      5.725809      5.605612
  Au      6.149278      5.155190      7.899401
  Au     10.178972      5.148519      6.572039
  Au      9.548898      8.972971      8.336640
  Au      9.440849      7.415697     10.511336
  Au      6.767653      7.864020      9.612945
  Au      6.755888      8.188813      6.890518
  Au      9.601447      5.969270      4.004767
  Au      9.409919      7.956888      5.864539
  Cr      8.463687      6.523683      8.064954
13
Coordinates from ORCA-job pbe E -2674.160617462792
  Au     10.194521      4.843375      9.169129
  Au      9.629108      5.046250     11.856310
  Au      7.419399      5.160460     10.255558
  Au      7.403676      5.724019      5.606205
  Au      6.148557      5.155390      7.900295
  Au     10.179170      5.149229      6.572038
  Au      9.550035      8.973005      8.336991
  Au      9.440892      7.415174     10.511015
  Au      6.767110      7.864314      9.612531
  Au      6.755886      8.187781      6.889624
  Au      9.601540      5.969932      4.005051
  Au      9.410371      7.957912      5.864562
  Cr      8.462885      6.524347      8.064366
13
Coordinates from ORCA-job pbe E -2674.160619845229
  Au     10.192911      4.843623      9.168877
  Au      9.628605      5.045919     11.856715
  Au      7.418817      5.161822     10.256512
  Au      7.404362      5.722098      5.606915
  Au      6.148838      5.152695      7.901015
  Au     10.179177      5.151344      6.571924
  Au      9.555979      8.971775      8.336974
  Au      9.440527      7.414624     10.510218
  Au      6.766667      7.864430      9.612638
  Au      6.755019      8.186111      6.889077
  Au      9.601550      5.971268      4.004881
  Au      9.409718      7.959730      5.864104
  Cr      8.460980      6.525750      8.063824
13
Coordinates from ORCA-job pbe E -2674.160621399413
  Au     10.191556      4.844089      9.169163
  Au      9.628766      5.045227     11.857709
  Au      7.419405      5.162927     10.257640
  Au      7.404496      5.721340      5.606977
  Au      6.149098      5.150178      7.900730
  Au     10.178836      5.153424      6.572615
  Au      9.561271      8.970878      8.336424
  Au      9.439999      7.413183     10.510175
  Au      6.766212      7.864905      9.612053
  Au      6.753518      8.185414      6.888549
  Au      9.601816      5.971844      4.004915
  Au      9.408649      7.961043      5.863552
  Cr      8.459528      6.526736      8.063173
13
Coordinates from ORCA-job pbe E -2674.160623107132
  Au     10.190887      4.844523      9.169533
  Au      9.627893      5.045466     11.858666
  Au      7.419074      5.164759     10.258466
  Au      7.404355      5.720879      5.607051
  Au      6.150821      5.146747      7.900779
  Au     10.178962      5.155096      6.572264
  Au      9.567297      8.968636      8.336598
  Au      9.438450      7.412894     10.510347
  Au      6.766404      7.864934      9.611517
  Au      6.752025      8.184959      6.888050
  Au      9.600785      5.973219      4.004228
  Au      9.407639      7.961824      5.863521
  Cr      8.458559      6.527254      8.062656
13
Coordinates from ORCA-job pbe E -2674.160625383454
  Au     10.190728      4.845520      9.169747
  Au      9.628215      5.044920     11.859391
  Au      7.419375      5.166771     10.259753
  Au      7.403566      5.720831      5.606728
  Au      6.152936      5.143603      7.900947
  Au     10.178968      5.156457      6.572075
  Au      9.572473      8.966130      8.337341
  Au      9.436049      7.412236     10.511969
  Au      6.766292      7.865799      9.609588
  Au      6.750153      8.185292      6.886463
  Au      9.599332      5.974276      4.003689
  Au      9.407171      7.961914      5.864062
  Cr      8.457893      6.527437      8.061922
13
Coordinates from ORCA-job pbe E -2674.160628078450
  Au     10.190852      4.847710      9.169589
  Au      9.629654      5.043220     11.859842
  Au      7.419712      5.169659     10.261936
  Au      7.401947      5.721060      5.605755
  Au      6.156582      5.139286      7.901506
  Au     10.178711      5.157850      6.571664
  Au      9.578755      8.962076      8.339026
  Au      9.432176      7.411622     10.515494
  Au      6.765795      7.867906      9.606360
  Au      6.747857      8.186083      6.883567
  Au      9.597411      5.975171      4.003141
  Au      9.406803      7.961772      5.864868
  Cr      8.456896      6.527775      8.060927
13
Coordinates from ORCA-job pbe E -2674.160629732034
  Au     10.190936      4.849763      9.169061
  Au      9.631050      5.041602     11.859659
  Au      7.419607      5.171796     10.263756
  Au      7.400704      5.721514      5.604642
  Au      6.159510      5.135871      7.901948
  Au     10.178171      5.158418      6.571287
  Au      9.582841      8.958856      8.340395
  Au      9.429394      7.411459     10.518516
  Au      6.765280      7.869971      9.604466
  Au      6.746669      8.186534      6.881790
  Au      9.596813      5.975222      4.002969
  Au      9.406243      7.961915      5.864979
  Cr      8.455933      6.528269      8.060208
13
Coordinates from ORCA-job pbe E -2674.160631084323
  Au     10.190867      4.851944      9.168459
  Au      9.632215      5.040115     11.859312
  Au      7.419046      5.173857     10.265437
  Au      7.399598      5.722698      5.603162
  Au      6.162705      5.131763      7.901954
  Au     10.177146      5.158517      6.570954
  Au      9.586603      8.955596      8.341304
  Au      9.427033      7.411598     10.521368
  Au      6.764857      7.872238      9.603739
  Au      6.746015      8.186762      6.881159
  Au      9.597252      5.974677      4.002918
  Au      9.405009      7.962458      5.864256
  Cr      8.454806      6.528968      8.059654
13
Coordinates from ORCA-job pbe E -2674.160631684534
  Au     10.190644      4.852950      9.168229
  Au      9.632332      5.039686     11.859134
  Au      7.418434      5.174892     10.266056
  Au      7.399257      5.723893      5.602278
  Au      6.164546      5.128813      7.901481
  Au     10.176244      5.158244      6.570887
  Au      9.588401      8.954054      8.341317
  Au      9.426300      7.411831     10.522425
  Au      6.764866      7.873479      9.604331
  Au      6.745979      8.186747      6.881851
  Au      9.598094      5.974114      4.002927
  Au      9.403866      7.963048      5.863269
  Cr      8.454187      6.529436      8.059489
