19
E=  -2035.40404252;c=0;m=3
Au      3.289962096383980      9.487105527757141      8.391613363565170
Au      7.906080500709740      9.430465266420789      8.545747863768700
Au      5.580463628012460     10.923733722389571      9.164566828957630
Au      5.476722646265320      8.111595501846759      9.594319418668830
Au      3.987925255415890      6.940902554434810      7.319791232991390
Au      6.975011370807140     11.462096153199891      6.777523919624130
Au      3.252895344796800      9.093298422569230      5.607421340461060
Au      5.474176274357220      7.518329212376010      4.829908717216350
Au      5.572940587061700     10.359814728944521      4.634972600761720
Au      8.096769846336651      6.279761301678290      5.140974046083110
Au      8.177227704068670      4.807192725053490      7.601747580009620
Au      9.454192135723529      7.346707064586310      7.214378633743760
Au      5.652586451265670      4.949981923114550      6.175695804671970
Au      6.199297674559490      5.198008879467630      3.494083502259400
Au      7.884850335580640      9.044284644397200      5.612683996959020
Au      7.975010579465430      6.776621575282650      9.725476589252979
Au      5.724799977048180      5.406688065693280      8.897889274937659
Au     10.219288533535179      8.359952205926950      9.637980527131401
Fe      5.506457548606350      9.290142254860941      7.042508378936090
