13
Coordinates from ORCA-job pbe E -2674.142422910826
  Au      9.462357      5.676539      7.836317
  Au      9.988132      8.317963      7.933184
  Au      7.814540      8.715271     10.073838
  Au      6.845467      4.590512      7.644662
  Au      7.237615      6.083370     10.028246
  Au      5.823017      9.357449      7.931535
  Au      7.996264      8.959591      5.791882
  Au      5.049126      6.788620      7.676008
  Au      6.582476     11.270218      9.892210
  Au      8.401472     10.824213      8.067004
  Au      7.275909      6.381240      5.483859
  Au     10.274663     10.595494      6.256564
  Cr      7.524785      7.310960      7.829126
13
Coordinates from ORCA-job pbe E -2674.143850791476
  Au      9.492027      5.679793      7.835476
  Au      9.996976      8.323051      7.919989
  Au      7.803447      8.724632     10.080439
  Au      6.844160      4.583208      7.644876
  Au      7.236998      6.092954     10.056921
  Au      5.817391      9.365115      7.944459
  Au      8.010903      8.963936      5.785094
  Au      5.024132      6.804925      7.678121
  Au      6.568438     11.246189      9.898531
  Au      8.397252     10.805127      8.066645
  Au      7.280493      6.391314      5.456637
  Au     10.276354     10.570004      6.247724
  Cr      7.527249      7.321194      7.829525
13
Coordinates from ORCA-job pbe E -2674.144920741958
  Au      9.519754      5.674411      7.832448
  Au     10.016575      8.311568      7.899976
  Au      7.782857      8.721116     10.100722
  Au      6.856251      4.627931      7.648565
  Au      7.232466      6.093923     10.085009
  Au      5.793952      9.361859      7.962257
  Au      8.027988      8.953448      5.763545
  Au      4.996945      6.812469      7.680839
  Au      6.557613     11.248338      9.909295
  Au      8.391939     10.779387      8.065878
  Au      7.284666      6.393581      5.428767
  Au     10.286643     10.568030      6.237589
  Cr      7.528172      7.325382      7.829548
13
Coordinates from ORCA-job pbe E -2674.145428203552
  Au      9.542343      5.676974      7.826943
  Au     10.029563      8.301670      7.878180
  Au      7.760540      8.718441     10.113871
  Au      6.869465      4.678642      7.652575
  Au      7.226902      6.102228     10.106652
  Au      5.777803      9.356512      7.982417
  Au      8.046552      8.941790      5.749376
  Au      4.978163      6.824817      7.687085
  Au      6.576931     11.239137      9.887822
  Au      8.379804     10.729353      8.063881
  Au      7.293078      6.401608      5.408314
  Au     10.264637     10.567306      6.257346
  Cr      7.530040      7.332963      7.829973
13
Coordinates from ORCA-job pbe E -2674.145987188419
  Au      9.550221      5.675919      7.824965
  Au     10.046367      8.289474      7.857926
  Au      7.739260      8.713265     10.131849
  Au      6.872359      4.688906      7.653260
  Au      7.224096      6.103234     10.114507
  Au      5.757105      9.350904      8.000934
  Au      8.063446      8.930154      5.731179
  Au      4.971061      6.827284      7.688972
  Au      6.574963     11.264059      9.895763
  Au      8.374107     10.701785      8.062398
  Au      7.295675      6.402943      5.400745
  Au     10.276577     10.588680      6.251692
  Cr      7.530585      7.334834      7.830248
13
Coordinates from ORCA-job pbe E -2674.146681841951
  Au      9.545242      5.673689      7.823428
  Au     10.063776      8.287186      7.832182
  Au      7.714329      8.719039     10.148213
  Au      6.871574      4.685887      7.653092
  Au      7.221389      6.100685     10.110076
  Au      5.740880      9.353671      8.026136
  Au      8.088021      8.925928      5.715608
  Au      4.974798      6.822835      7.690097
  Au      6.574891     11.287057      9.901244
  Au      8.366052     10.666458      8.060896
  Au      7.296188      6.399588      5.405021
  Au     10.286886     10.610251      6.247697
  Cr      7.531794      7.339167      7.830748
13
Coordinates from ORCA-job pbe E -2674.147465610320
  Au      9.531671      5.680210      7.817431
  Au     10.077997      8.287373      7.807007
  Au      7.690102      8.725909     10.161670
  Au      6.867152      4.667596      7.651486
  Au      7.216197      6.105236     10.095364
  Au      5.727993      9.357050      8.050662
  Au      8.112365      8.923167      5.703506
  Au      4.989848      6.820979      7.696628
  Au      6.577806     11.304968      9.902777
  Au      8.357438     10.626017      8.058049
  Au      7.302570      6.399831      5.420108
  Au     10.290863     10.626159      6.248264
  Cr      7.533819      7.346946      7.831485
13
Coordinates from ORCA-job pbe E -2674.148146405076
  Au      9.519878      5.686564      7.806058
  Au     10.094514      8.285797      7.782238
  Au      7.665232      8.732693     10.176499
  Au      6.863440      4.654719      7.651100
  Au      7.205821      6.111751     10.082604
  Au      5.713730      9.360791      8.075315
  Au      8.135979      8.919380      5.688259
  Au      5.002659      6.820228      7.709041
  Au      6.588483     11.315328      9.895345
  Au      8.346014     10.585756      8.057701
  Au      7.314400      6.398611      5.433473
  Au     10.289448     10.643585      6.254585
  Cr      7.536226      7.356238      7.832220
13
Coordinates from ORCA-job pbe E -2674.148726593014
  Au      9.514923      5.693151      7.791331
  Au     10.110881      8.283524      7.756406
  Au      7.639716      8.735947     10.194898
  Au      6.863797      4.650230      7.649475
  Au      7.192639      6.117881     10.075309
  Au      5.695101      9.362391      8.099151
  Au      8.160354      8.914643      5.672716
  Au      5.009767      6.820136      7.724053
  Au      6.598308     11.331111      9.890506
  Au      8.340585     10.545778      8.051814
  Au      7.330431      6.398509      5.440602
  Au     10.280493     10.651396      6.265046
  Cr      7.538825      7.366745      7.833131
13
Coordinates from ORCA-job pbe E -2674.149289807828
  Au      9.513918      5.696726      7.775521
  Au     10.129869      8.276931      7.730971
  Au      7.613433      8.739277     10.212167
  Au      6.862823      4.651848      7.650826
  Au      7.177848      6.125698     10.073616
  Au      5.677614      9.363646      8.123566
  Au      8.183384      8.906954      5.653151
  Au      5.011887      6.823006      7.741089
  Au      6.608322     11.336025      9.882399
  Au      8.328704     10.509432      8.053029
  Au      7.347295      6.396459      5.443240
  Au     10.278885     10.667870      6.271070
  Cr      7.541839      7.377570      7.833792
13
Coordinates from ORCA-job pbe E -2674.149802651692
  Au      9.514480      5.697730      7.759552
  Au     10.147760      8.272135      7.706813
  Au      7.587926      8.741943     10.231194
  Au      6.863806      4.655578      7.650862
  Au      7.162642      6.128786     10.073172
  Au      5.658502      9.365197      8.146786
  Au      8.205568      8.901030      5.634922
  Au      5.011579      6.821970      7.757053
  Au      6.618466     11.348761      9.876686
  Au      8.321211     10.476969      8.051294
  Au      7.363967      6.392527      5.443759
  Au     10.275447     10.681230      6.277654
  Cr      7.544467      7.387586      7.834691
13
Coordinates from ORCA-job pbe E -2674.150254276855
  Au      9.514356      5.698699      7.742952
  Au     10.165202      8.267111      7.684260
  Au      7.564348      8.743984     10.249418
  Au      6.864458      4.660593      7.651469
  Au      7.147393      6.132653     10.072184
  Au      5.640249      9.366619      8.167767
  Au      8.226106      8.895361      5.616796
  Au      5.012153      6.821626      7.773378
  Au      6.625530     11.359545      9.873454
  Au      8.314076     10.445512      8.049511
  Au      7.381351      6.388182      5.445053
  Au     10.273068     10.692856      6.282523
  Cr      7.547533      7.398700      7.835674
13
Coordinates from ORCA-job pbe E -2674.150635440330
  Au      9.512356      5.699697      7.727831
  Au     10.180494      8.263182      7.664630
  Au      7.543545      8.746541     10.265734
  Au      6.864286      4.661533      7.651633
  Au      7.133915      6.135627     10.069584
  Au      5.624116      9.368849      8.186318
  Au      8.243913      8.890966      5.600973
  Au      5.014370      6.820337      7.787509
  Au      6.633499     11.370427      9.869557
  Au      8.307485     10.416383      8.047965
  Au      7.397065      6.383823      5.448189
  Au     10.270171     10.704459      6.287763
  Cr      7.550607      7.409617      7.836751
13
Coordinates from ORCA-job pbe E -2674.150961990861
  Au      9.510148      5.700808      7.718164
  Au     10.192688      8.259850      7.647260
  Au      7.525549      8.748892     10.278328
  Au      6.863856      4.661807      7.652111
  Au      7.126081      6.138135     10.067145
  Au      5.611338      9.370280      8.202502
  Au      8.259473      8.887076      5.588693
  Au      5.017259      6.819966      7.795343
  Au      6.639777     11.379882      9.866639
  Au      8.301457     10.389235      8.046692
  Au      7.406789      6.381210      5.451588
  Au     10.267951     10.714833      6.292080
  Cr      7.553457      7.419468      7.837892
13
Coordinates from ORCA-job pbe E -2674.151274465149
  Au      9.507641      5.700924      7.716722
  Au     10.202439      8.257097      7.633856
  Au      7.511573      8.750747     10.288344
  Au      6.863505      4.661219      7.652825
  Au      7.126507      6.138266     10.065097
  Au      5.601125      9.371497      8.215068
  Au      8.271137      8.884005      5.579336
  Au      5.020436      6.819235      7.793290
  Au      6.646254     11.388440      9.863194
  Au      8.296660     10.367251      8.045921
  Au      7.407055      6.380339      5.455032
  Au     10.265545     10.724557      6.296616
  Cr      7.555945      7.427865      7.839136
13
Coordinates from ORCA-job pbe E -2674.151625913464
  Au      9.504658      5.701756      7.726669
  Au     10.209139      8.254318      7.624830
  Au      7.502142      8.751731     10.295000
  Au      6.863664      4.660961      7.654090
  Au      7.138774      6.136793     10.062934
  Au      5.594056      9.371496      8.223392
  Au      8.278628      8.881430      5.573718
  Au      5.025145      6.819685      7.777842
  Au      6.650514     11.393873      9.860608
  Au      8.293095     10.349890      8.045469
  Au      7.394097      6.383380      5.459291
  Au     10.263720     10.730618      6.300090
  Cr      7.558190      7.435512      7.840505
13
Coordinates from ORCA-job pbe E -2674.152064366010
  Au      9.499455      5.702888      7.753377
  Au     10.212238      8.251822      7.625275
  Au      7.501993      8.750968     10.297741
  Au      6.864320      4.660397      7.656160
  Au      7.168599      6.132156     10.059221
  Au      5.591052      9.370784      8.222719
  Au      8.277277      8.880487      5.572524
  Au      5.033140      6.820745      7.742485
  Au      6.653839     11.394816      9.857336
  Au      8.291139     10.339469      8.045602
  Au      7.361386      6.391211      5.466040
  Au     10.261089     10.732511      6.303889
  Cr      7.560293      7.443188      7.842069
13
Coordinates from ORCA-job pbe E -2674.152543868899
  Au      9.493054      5.707512      7.801210
  Au     10.210838      8.248838      7.634838
  Au      7.510572      8.747106     10.295714
  Au      6.866050      4.658691      7.659300
  Au      7.220705      6.126906     10.054430
  Au      5.592753      9.367229      8.213285
  Au      8.267490      8.879105      5.576505
  Au      5.044648      6.826768      7.683894
  Au      6.653417     11.387236      9.854427
  Au      8.290584     10.335207      8.046116
  Au      7.305304      6.409222      5.474797
  Au     10.258237     10.725482      6.306419
  Cr      7.562169      7.452140      7.843504
13
Coordinates from ORCA-job pbe E -2674.152972995012
  Au      9.488465      5.709286      7.841143
  Au     10.214126      8.245180      7.633500
  Au      7.508462      8.745233     10.298668
  Au      6.867983      4.661938      7.661974
  Au      7.263553      6.120118     10.051291
  Au      5.589512      9.364808      8.214204
  Au      8.268444      8.875741      5.574855
  Au      5.051903      6.829082      7.636249
  Au      6.651614     11.384169      9.854409
  Au      8.289604     10.328764      8.046610
  Au      7.259124      6.421690      5.480379
  Au     10.258764     10.722118      6.306571
  Cr      7.564268      7.463313      7.844583
13
Coordinates from ORCA-job pbe E -2674.153421227950
  Au      9.488797      5.711635      7.902865
  Au     10.219495      8.239802      7.630847
  Au      7.504663      8.740529     10.303368
  Au      6.871314      4.662930      7.665514
  Au      7.327340      6.112248     10.053947
  Au      5.584236      9.357099      8.214930
  Au      8.270774      8.867162      5.570298
  Au      5.050888      6.844523      7.575439
  Au      6.645561     11.370802      9.853845
  Au      8.289599     10.329138      8.047492
  Au      7.198637      6.447882      5.476292
  Au     10.258295     10.710352      6.304894
  Cr      7.566222      7.477338      7.844707
13
Coordinates from ORCA-job pbe E -2674.153867402475
  Au      9.492267      5.713370      7.914932
  Au     10.232148      8.231760      7.603399
  Au      7.477184      8.739791     10.317824
  Au      6.871955      4.675399      7.664219
  Au      7.339300      6.111868     10.058221
  Au      5.569628      9.355407      8.238482
  Au      8.294919      8.857929      5.556661
  Au      5.047215      6.845019      7.566799
  Au      6.643432     11.372965      9.855744
  Au      8.286753     10.312837      8.047286
  Au      7.191198      6.452209      5.472319
  Au     10.259934     10.711079      6.302211
  Cr      7.569888      7.491809      7.846340
13
Coordinates from ORCA-job pbe E -2674.154178479297
  Au      9.488113      5.713047      7.935372
  Au     10.244952      8.224422      7.575821
  Au      7.448939      8.739528     10.330208
  Au      6.871293      4.680258      7.661113
  Au      7.358231      6.106849     10.054277
  Au      5.553030      9.347969      8.261636
  Au      8.320978      8.845679      5.540545
  Au      5.046390      6.853032      7.562116
  Au      6.644639     11.376602      9.853631
  Au      8.285286     10.303594      8.046850
  Au      7.181661      6.457222      5.471638
  Au     10.258625     10.717501      6.304486
  Cr      7.573684      7.505739      7.846745
13
Coordinates from ORCA-job pbe E -2674.154318371873
  Au      9.479356      5.717905      7.938202
  Au     10.254619      8.215385      7.555379
  Au      7.430161      8.734962     10.343682
  Au      6.866514      4.680646      7.658269
  Au      7.360023      6.114846     10.049666
  Au      5.539004      9.350329      8.279321
  Au      8.334836      8.837596      5.527694
  Au      5.059448      6.839499      7.554170
  Au      6.655270     11.382310      9.849441
  Au      8.283426     10.290883      8.047428
  Au      7.182680      6.460401      5.481998
  Au     10.252710     10.724590      6.309653
  Cr      7.577776      7.522089      7.849534
13
Coordinates from ORCA-job pbe E -2674.154364268755
  Au      9.474815      5.725244      7.926906
  Au     10.265636      8.210330      7.544741
  Au      7.412349      8.737873     10.353666
  Au      6.867113      4.677418      7.657923
  Au      7.354509      6.107499     10.033680
  Au      5.523480      9.346656      8.290957
  Au      8.350634      8.833922      5.513393
  Au      5.064641      6.851145      7.572923
  Au      6.661851     11.386537      9.841009
  Au      8.279432     10.274230      8.046567
  Au      7.188990      6.448842      5.494408
  Au     10.250051     10.732098      6.318451
  Cr      7.582320      7.539648      7.849813
13
Coordinates from ORCA-job pbe E -2674.154309326218
  Au      9.473225      5.714771      7.929785
  Au     10.269916      8.211747      7.530462
  Au      7.401793      8.736078     10.357852
  Au      6.862653      4.665045      7.654433
  Au      7.350707      6.116243     10.045045
  Au      5.516468      9.345043      8.304718
  Au      8.361331      8.827772      5.505129
  Au      5.056682      6.852367      7.584014
  Au      6.661825     11.386505      9.843081
  Au      8.280735     10.281551      8.046176
  Au      7.208395      6.460111      5.479937
  Au     10.248662     10.735273      6.314029
  Cr      7.583429      7.538937      7.849777
13
Coordinates from ORCA-job pbe E -2674.154405913982
  Au      9.462207      5.712025      7.939868
  Au     10.264107      8.215697      7.549175
  Au      7.422207      8.736624     10.350704
  Au      6.866265      4.668587      7.659886
  Au      7.361411      6.110756     10.035569
  Au      5.525768      9.348598      8.288637
  Au      8.343696      8.834082      5.514534
  Au      5.068823      6.843167      7.560794
  Au      6.657487     11.384809      9.847613
  Au      8.280926     10.283142      8.045964
  Au      7.188390      6.460945      5.490444
  Au     10.251108     10.730310      6.311215
  Cr      7.583428      7.542696      7.850037
13
Coordinates from ORCA-job pbe E -2674.154367746652
  Au      9.479668      5.729681      7.921221
  Au     10.260653      8.209470      7.553411
  Au      7.422886      8.735955     10.350268
  Au      6.859037      4.662180      7.655871
  Au      7.349144      6.111852     10.037652
  Au      5.529196      9.353618      8.282581
  Au      8.342801      8.841127      5.518798
  Au      5.067963      6.842007      7.569207
  Au      6.657145     11.386040      9.847158
  Au      8.282249     10.286640      8.046880
  Au      7.188969      6.445888      5.497088
  Au     10.253394     10.727813      6.313320
  Cr      7.582718      7.539171      7.850983
13
Coordinates from ORCA-job pbe E -2674.154479118592
  Au      9.468427      5.720322      7.922608
  Au     10.264187      8.213519      7.549013
  Au      7.419590      8.737013     10.351773
  Au      6.862017      4.661473      7.657258
  Au      7.346869      6.112304     10.033592
  Au      5.524384      9.350680      8.289077
  Au      8.346423      8.836413      5.513270
  Au      5.069031      6.845041      7.577671
  Au      6.658192     11.385408      9.846569
  Au      8.280283     10.282404      8.045608
  Au      7.200368      6.451525      5.494843
  Au     10.251719     10.730042      6.312839
  Cr      7.584330      7.545296      7.850319
13
Coordinates from ORCA-job pbe E -2674.154508819624
  Au      9.463272      5.718159      7.928484
  Au     10.265230      8.212978      7.547176
  Au      7.418053      8.735920     10.353011
  Au      6.861487      4.658645      7.656261
  Au      7.351602      6.110924     10.030942
  Au      5.521906      9.349858      8.291636
  Au      8.348644      8.834763      5.511138
  Au      5.071737      6.844585      7.574356
  Au      6.656419     11.384432      9.847837
  Au      8.280750     10.286917      8.045171
  Au      7.197881      6.453533      5.496939
  Au     10.252438     10.728961      6.310492
  Cr      7.586402      7.551766      7.850997
13
Coordinates from ORCA-job pbe E -2674.154597350926
  Au      9.448954      5.715704      7.921051
  Au     10.265644      8.213022      7.549603
  Au      7.421739      8.734873     10.353553
  Au      6.857820      4.643677      7.655667
  Au      7.342772      6.110433     10.019654
  Au      5.518033      9.351058      8.292569
  Au      8.348472      8.833662      5.507546
  Au      5.082618      6.839200      7.583578
  Au      6.654025     11.382680      9.851039
  Au      8.280831     10.298510      8.043253
  Au      7.209584      6.451640      5.507009
  Au     10.253591     10.726676      6.307335
  Cr      7.591739      7.570308      7.852581
13
Coordinates from ORCA-job pbe E -2674.154713257363
  Au      9.433917      5.713269      7.902260
  Au     10.262427      8.215912      7.559018
  Au      7.431593      8.732122     10.348265
  Au      6.851430      4.618837      7.652325
  Au      7.323249      6.114279     10.007363
  Au      5.520542      9.352755      8.287839
  Au      8.344211      8.838491      5.508510
  Au      5.095550      6.833404      7.602629
  Au      6.647974     11.378242      9.857071
  Au      8.282712     10.322285      8.040751
  Au      7.226091      6.439426      5.522084
  Au     10.257877     10.723075      6.302749
  Cr      7.598248      7.589345      7.853572
13
Coordinates from ORCA-job pbe E -2674.154778062328
  Au      9.427028      5.722515      7.878936
  Au     10.255684      8.215523      7.567302
  Au      7.441001      8.735895     10.345784
  Au      6.842970      4.595163      7.652599
  Au      7.299259      6.105716      9.988835
  Au      5.522629      9.356970      8.283462
  Au      8.340242      8.838047      5.512586
  Au      5.107180      6.822798      7.624611
  Au      6.644281     11.377698      9.861099
  Au      8.284515     10.346397      8.038267
  Au      7.247089      6.433123      5.535823
  Au     10.261747     10.714297      6.298762
  Cr      7.602198      7.607299      7.856372
13
Coordinates from ORCA-job pbe E -2674.154849929402
  Au      9.411935      5.722862      7.861751
  Au     10.262156      8.214395      7.565729
  Au      7.437526      8.732457     10.349550
  Au      6.840470      4.585650      7.650710
  Au      7.285285      6.112968      9.975907
  Au      5.517367      9.355274      8.286092
  Au      8.343753      8.838660      5.505645
  Au      5.120633      6.820135      7.639394
  Au      6.645074     11.373960      9.860794
  Au      8.283442     10.350395      8.036881
  Au      7.258013      6.420170      5.553136
  Au     10.261643     10.715683      6.301592
  Cr      7.608524      7.628834      7.857256
13
Coordinates from ORCA-job pbe E -2674.154873681448
  Au      9.396817      5.722963      7.844015
  Au     10.265481      8.214593      7.569724
  Au      7.441779      8.731044     10.352809
  Au      6.835158      4.564918      7.649419
  Au      7.267035      6.117522      9.962766
  Au      5.514390      9.356132      8.284303
  Au      8.340544      8.839297      5.502107
  Au      5.133262      6.811287      7.655421
  Au      6.645216     11.371888      9.862983
  Au      8.284585     10.365810      8.035256
  Au      7.275340      6.413251      5.566119
  Au     10.262530     10.713638      6.300797
  Cr      7.613685      7.649098      7.858721
13
Coordinates from ORCA-job pbe E -2674.154881603614
  Au      9.389558      5.725143      7.845123
  Au     10.268443      8.213604      7.569843
  Au      7.441531      8.731354     10.356833
  Au      6.833596      4.558640      7.649175
  Au      7.268075      6.114627      9.953124
  Au      5.512987      9.355551      8.283877
  Au      8.340218      8.838366      5.500683
  Au      5.140178      6.807047      7.652656
  Au      6.641431     11.369048      9.866209
  Au      8.286299     10.375875      8.034907
  Au      7.271386      6.410947      5.574381
  Au     10.265453     10.708352      6.297569
  Cr      7.616666      7.662887      7.860058
13
Coordinates from ORCA-job pbe E -2674.154893993822
  Au      9.391702      5.727323      7.846403
  Au     10.271395      8.213106      7.568906
  Au      7.440592      8.732339     10.360149
  Au      6.833274      4.553340      7.648449
  Au      7.268555      6.116478      9.953882
  Au      5.513067      9.354770      8.282753
  Au      8.339328      8.838207      5.500421
  Au      5.137673      6.808437      7.653478
  Au      6.640217     11.368252      9.866888
  Au      8.287009     10.375548      8.035278
  Au      7.270781      6.413124      5.571366
  Au     10.266230     10.706366      6.296842
  Cr      7.616000      7.664151      7.859621
13
Coordinates from ORCA-job pbe E -2674.154897241707
  Au      9.388064      5.728435      7.843314
  Au     10.273319      8.212307      7.566121
  Au      7.438319      8.732282     10.362033
  Au      6.832973      4.549388      7.648096
  Au      7.265094      6.119379      9.950880
  Au      5.512344      9.354550      8.284336
  Au      8.340749      8.837574      5.499619
  Au      5.141060      6.806049      7.656147
  Au      6.640606     11.368898      9.866953
  Au      8.287215     10.374090      8.035688
  Au      7.273135      6.412434      5.574434
  Au     10.266271     10.707195      6.297178
  Cr      7.616673      7.668861      7.859639
13
Coordinates from ORCA-job pbe E -2674.154898355722
  Au      9.387162      5.728310      7.844160
  Au     10.273810      8.212318      7.565337
  Au      7.437880      8.732609     10.362318
  Au      6.833315      4.547678      7.648202
  Au      7.265550      6.119316      9.949955
  Au      5.512752      9.354102      8.284175
  Au      8.340889      8.837572      5.499969
  Au      5.141567      6.805590      7.655298
  Au      6.640710     11.369491      9.866541
  Au      8.288051     10.374389      8.036618
  Au      7.271198      6.412074      5.575059
  Au     10.266469     10.708304      6.297465
  Cr      7.616468      7.669688      7.859342
13
Coordinates from ORCA-job pbe E -2674.154899067512
  Au      9.386940      5.728801      7.843885
  Au     10.273835      8.212097      7.564707
  Au      7.437424      8.732975     10.362498
  Au      6.833620      4.546686      7.648327
  Au      7.264957      6.119023      9.949129
  Au      5.512945      9.353732      8.284120
  Au      8.340844      8.837399      5.500481
  Au      5.141913      6.804867      7.655593
  Au      6.640568     11.369831      9.865901
  Au      8.289310     10.374708      8.037885
  Au      7.270648      6.412021      5.575452
  Au     10.266582     10.708446      6.297309
  Cr      7.616236      7.670856      7.859150
