11
Coordinates from ORCA-job pbe E -2509.011075692304
  Au      9.603105      7.727761      6.761217
  Au      7.648263      3.133050      7.527855
  Au      8.692084      2.844333      5.129064
  Au     10.487938      6.951098      9.525729
  Au     10.839567      9.514661      8.499465
  Au      9.328541      4.558644      9.300872
  Au      8.259071      8.969382      9.046246
  Au      6.420479      4.870158      9.160329
  Au      6.070693      7.543951      9.493654
  Au      8.820968      5.327429      6.135949
  Mn      8.043717      6.539198      8.333924
11
Coordinates from ORCA-job pbe E -2509.015609270481
  Au      9.632444      7.761644      6.745654
  Au      7.683545      3.112439      7.559045
  Au      8.673205      2.798921      5.103168
  Au     10.486131      6.960634      9.506474
  Au     10.878338      9.514608      8.547051
  Au      9.340241      4.541963      9.283673
  Au      8.259154      9.024149      9.053186
  Au      6.398614      4.855436      9.189261
  Au      6.005737      7.547980      9.504069
  Au      8.818299      5.313978      6.096778
  Mn      8.038716      6.547913      8.325945
11
Coordinates from ORCA-job pbe E -2509.017773987281
  Au      9.674252      7.730702      6.724029
  Au      7.729498      3.138871      7.578151
  Au      8.637636      2.850448      5.124238
  Au     10.473061      6.947187      9.475628
  Au     10.872066      9.486706      8.567448
  Au      9.356962      4.521470      9.284155
  Au      8.227968      9.048198      9.041723
  Au      6.383415      4.832955      9.222418
  Au      5.975412      7.560779      9.500161
  Au      8.840480      5.324439      6.077969
  Mn      8.043678      6.537910      8.318385
11
Coordinates from ORCA-job pbe E -2509.019259539919
  Au      9.738364      7.714409      6.725051
  Au      7.730357      3.161107      7.602749
  Au      8.576854      2.837278      5.088119
  Au     10.470469      6.937788      9.460102
  Au     10.828869      9.494147      8.595791
  Au      9.387775      4.507564      9.306434
  Au      8.179173      9.061288      9.022774
  Au      6.375454      4.834044      9.258041
  Au      5.977377      7.562374      9.492576
  Au      8.882095      5.341787      6.048655
  Mn      8.067640      6.527880      8.314011
11
Coordinates from ORCA-job pbe E -2509.020483810933
  Au      9.812354      7.714639      6.738293
  Au      7.724387      3.201547      7.605650
  Au      8.486973      2.849145      5.093471
  Au     10.484586      6.932949      9.458334
  Au     10.774673      9.523154      8.626338
  Au      9.414147      4.481570      9.324613
  Au      8.131079      9.062044      8.987021
  Au      6.379319      4.847604      9.287894
  Au      5.982537      7.530175      9.473617
  Au      8.923452      5.326892      6.014970
  Mn      8.100919      6.509945      8.304102
11
Coordinates from ORCA-job pbe E -2509.021400540119
  Au      9.856094      7.683570      6.742008
  Au      7.730018      3.250910      7.612178
  Au      8.396222      2.890980      5.076476
  Au     10.501619      6.934726      9.472876
  Au     10.738994      9.538186      8.638550
  Au      9.428323      4.461739      9.356932
  Au      8.094157      9.053696      8.941079
  Au      6.398169      4.849650      9.331332
  Au      5.967102      7.497247      9.438196
  Au      8.975867      5.333155      6.003914
  Mn      8.127863      6.485805      8.300761
11
Coordinates from ORCA-job pbe E -2509.022481900660
  Au      9.889566      7.664172      6.758437
  Au      7.757432      3.303874      7.610774
  Au      8.310110      2.931117      5.057671
  Au     10.514901      6.922041      9.486582
  Au     10.702446      9.524549      8.656256
  Au      9.443832      4.466962      9.407821
  Au      8.061093      9.032615      8.880327
  Au      6.427042      4.844843      9.384738
  Au      5.950735      7.485755      9.396292
  Au      9.005786      5.344582      5.978426
  Mn      8.151483      6.459155      8.296978
11
Coordinates from ORCA-job pbe E -2509.023736586900
  Au      9.898673      7.657955      6.775042
  Au      7.791842      3.360758      7.607277
  Au      8.237404      2.960098      5.038426
  Au     10.536769      6.911359      9.513946
  Au     10.692816      9.518524      8.676000
  Au      9.442141      4.471196      9.466592
  Au      8.039933      8.999400      8.817974
  Au      6.467496      4.834021      9.443031
  Au      5.927397      7.475990      9.340681
  Au      9.009864      5.362411      5.942655
  Mn      8.170092      6.427954      8.292679
11
Coordinates from ORCA-job pbe E -2509.024918624911
  Au      9.897320      7.662294      6.792543
  Au      7.822931      3.412916      7.598705
  Au      8.171216      2.986567      5.019562
  Au     10.552807      6.912601      9.537743
  Au     10.686861      9.507304      8.697002
  Au      9.437432      4.472530      9.537438
  Au      8.042057      8.966984      8.756815
  Au      6.507485      4.827467      9.505234
  Au      5.901759      7.452883      9.279012
  Au      9.005563      5.383158      5.902486
  Mn      8.188997      6.394959      8.287765
11
Coordinates from ORCA-job pbe E -2509.026010831892
  Au      9.904346      7.668519      6.799845
  Au      7.856640      3.468512      7.601729
  Au      8.102505      3.017959      5.014412
  Au     10.559228      6.901806      9.552343
  Au     10.689316      9.511279      8.725530
  Au      9.437101      4.466212      9.610876
  Au      8.029327      8.935449      8.700343
  Au      6.537013      4.819620      9.561833
  Au      5.889386      7.425139      9.214484
  Au      8.999776      5.408120      5.855133
  Mn      8.209789      6.357049      8.277776
11
Coordinates from ORCA-job pbe E -2509.027103304809
  Au      9.913215      7.682544      6.801154
  Au      7.894721      3.526086      7.617108
  Au      8.035910      3.053188      5.022517
  Au     10.550257      6.898703      9.551384
  Au     10.688260      9.503498      8.753114
  Au      9.436633      4.450233      9.686152
  Au      8.028302      8.909114      8.658419
  Au      6.557166      4.809505      9.612424
  Au      5.886938      7.388341      9.143113
  Au      8.993179      5.441240      5.807129
  Mn      8.229845      6.317214      8.261789
11
Coordinates from ORCA-job pbe E -2509.027886239873
  Au      9.919579      7.698238      6.789179
  Au      7.936682      3.568274      7.626118
  Au      7.981364      3.083247      5.041040
  Au     10.517928      6.888902      9.543355
  Au     10.701921      9.501753      8.775406
  Au      9.442878      4.439467      9.764500
  Au      8.036252      8.896561      8.639901
  Au      6.559871      4.798256      9.656702
  Au      5.896013      7.344605      9.074427
  Au      8.980425      5.480285      5.762274
  Mn      8.241511      6.280076      8.241403
11
Coordinates from ORCA-job pbe E -2509.028043740162
  Au      9.913774      7.713309      6.781457
  Au      7.985394      3.603040      7.647511
  Au      7.962230      3.093359      5.063277
  Au     10.495659      6.883859      9.535809
  Au     10.707923      9.481116      8.786363
  Au      9.429579      4.433872      9.804143
  Au      8.048755      8.882015      8.640417
  Au      6.560400      4.783978      9.673025
  Au      5.915990      7.331464      9.028553
  Au      8.951237      5.516391      5.730053
  Mn      8.243485      6.257262      8.223695
11
Coordinates from ORCA-job pbe E -2509.028111236595
  Au      9.896666      7.712750      6.771304
  Au      7.966800      3.542522      7.629757
  Au      7.996548      3.080575      5.052780
  Au     10.485823      6.899735      9.541883
  Au     10.729181      9.495662      8.759621
  Au      9.430932      4.443335      9.785237
  Au      8.063164      8.903944      8.676808
  Au      6.538772      4.784742      9.632797
  Au      5.926938      7.341822      9.066444
  Au      8.950854      5.496681      5.764236
  Mn      8.228748      6.277896      8.233436
11
Coordinates from ORCA-job pbe E -2509.028290754444
  Au      9.901307      7.715734      6.771073
  Au      7.997732      3.554975      7.648806
  Au      7.964232      3.094237      5.046042
  Au     10.475328      6.898049      9.549500
  Au     10.728353      9.490995      8.760458
  Au      9.429782      4.443252      9.805917
  Au      8.065683      8.898382      8.669724
  Au      6.542561      4.778368      9.637651
  Au      5.928008      7.332929      9.046361
  Au      8.950073      5.504803      5.751883
  Mn      8.231366      6.267942      8.226890
11
Coordinates from ORCA-job pbe E -2509.028339033466
  Au      9.889890      7.721846      6.769678
  Au      8.030322      3.569470      7.652675
  Au      7.962250      3.107416      5.059738
  Au     10.468067      6.898073      9.553837
  Au     10.737573      9.478771      8.756844
  Au      9.414488      4.440892      9.834432
  Au      8.075161      8.881925      8.666705
  Au      6.545276      4.771742      9.641835
  Au      5.935506      7.331295      9.028304
  Au      8.926592      5.523597      5.730355
  Mn      8.229301      6.254636      8.219901
11
Coordinates from ORCA-job pbe E -2509.028434784113
  Au      9.901061      7.714727      6.768674
  Au      8.043177      3.560627      7.650733
  Au      7.935693      3.106064      5.054677
  Au     10.464148      6.906643      9.562011
  Au     10.733717      9.483066      8.756429
  Au      9.419176      4.445902      9.838115
  Au      8.069920      8.887272      8.670603
  Au      6.544014      4.765715      9.629297
  Au      5.936747      7.334837      9.032772
  Au      8.936258      5.519252      5.732564
  Mn      8.230514      6.255560      8.218429
11
Coordinates from ORCA-job pbe E -2509.028527405074
  Au      9.901686      7.712027      6.763141
  Au      8.083435      3.536519      7.652981
  Au      7.915122      3.099928      5.059500
  Au     10.442208      6.912518      9.576820
  Au     10.743809      9.492669      8.743051
  Au      9.414380      4.460812      9.841954
  Au      8.086740      8.896431      8.692132
  Au      6.530180      4.757747      9.581844
  Au      5.944791      7.335933      9.054237
  Au      8.929028      5.514860      5.734991
  Mn      8.223048      6.260221      8.213653
11
Coordinates from ORCA-job pbe E -2509.028616668310
  Au      9.906701      7.703764      6.763256
  Au      8.115775      3.533052      7.651769
  Au      7.889373      3.112613      5.058808
  Au     10.433587      6.927677      9.587642
  Au     10.746982      9.488649      8.733938
  Au      9.409144      4.467349      9.862666
  Au      8.086752      8.891410      8.695771
  Au      6.527308      4.748615      9.563838
  Au      5.948530      7.338110      9.058642
  Au      8.927004      5.513891      5.728198
  Mn      8.223272      6.254534      8.209774
11
Coordinates from ORCA-job pbe E -2509.028662508872
  Au      9.910172      7.697687      6.764752
  Au      8.137023      3.536432      7.651480
  Au      7.874204      3.119348      5.063684
  Au     10.428828      6.934681      9.594242
  Au     10.746113      9.490626      8.729200
  Au      9.402211      4.470973      9.875306
  Au      8.089916      8.882514      8.696084
  Au      6.524931      4.744159      9.549400
  Au      5.950656      7.339641      9.065729
  Au      8.924010      5.514563      5.718453
  Mn      8.226361      6.249040      8.205975
11
Coordinates from ORCA-job pbe E -2509.028686575859
  Au      9.909925      7.695118      6.764312
  Au      8.150135      3.536109      7.652123
  Au      7.869094      3.122503      5.066564
  Au     10.421535      6.941201      9.596826
  Au     10.751000      9.491123      8.724173
  Au      9.397441      4.475351      9.881681
  Au      8.094694      8.876520      8.698896
  Au      6.519025      4.742157      9.536980
  Au      5.951322      7.338214      9.075841
  Au      8.922258      5.514637      5.713439
  Mn      8.227998      6.246732      8.203470
11
Coordinates from ORCA-job pbe E -2509.028702066628
  Au      9.911424      7.693576      6.763738
  Au      8.151495      3.535984      7.652630
  Au      7.868741      3.122489      5.066940
  Au     10.417757      6.943749      9.599065
  Au     10.751327      9.494983      8.720177
  Au      9.395044      4.477670      9.882331
  Au      8.097584      8.871595      8.700299
  Au      6.514392      4.741200      9.530547
  Au      5.951482      7.338831      9.085862
  Au      8.923883      5.513884      5.710541
  Mn      8.231298      6.245705      8.202173
11
Coordinates from ORCA-job pbe E -2509.028711743751
  Au      9.910909      7.695025      6.761001
  Au      8.150033      3.534144      7.653175
  Au      7.871415      3.120139      5.066472
  Au     10.413362      6.947120      9.600090
  Au     10.754526      9.495699      8.718184
  Au      9.393656      4.480088      9.881700
  Au      8.099934      8.869406      8.702865
  Au      6.509883      4.739995      9.526776
  Au      5.953158      7.338380      9.093207
  Au      8.924642      5.513975      5.710133
  Mn      8.232908      6.245694      8.200700
11
Coordinates from ORCA-job pbe E -2509.028718593866
  Au      9.910392      7.696913      6.757859
  Au      8.147017      3.532638      7.653516
  Au      7.875688      3.118280      5.064926
  Au     10.410527      6.948832      9.602337
  Au     10.756220      9.495654      8.715242
  Au      9.392054      4.481726      9.881035
  Au      8.101609      8.868639      8.705600
  Au      6.506934      4.738194      9.525987
  Au      5.955335      7.338959      9.098171
  Au      8.924742      5.514249      5.710422
  Mn      8.233907      6.245582      8.199208
11
Coordinates from ORCA-job pbe E -2509.028723099437
  Au      9.908558      7.699353      6.755048
  Au      8.145075      3.532257      7.653423
  Au      7.880059      3.115890      5.064224
  Au     10.408903      6.950017      9.604132
  Au     10.758274      9.494072      8.713914
  Au      9.389759      4.483118      9.881187
  Au      8.102975      8.868663      8.707970
  Au      6.505631      4.736933      9.526350
  Au      5.957940      7.338980      9.100596
  Au      8.923349      5.515147      5.710247
  Mn      8.233903      6.245235      8.197213
11
Coordinates from ORCA-job pbe E -2509.028726400482
  Au      9.906450      7.700651      6.753199
  Au      8.145264      3.532090      7.652893
  Au      7.883855      3.114377      5.063415
  Au     10.407782      6.950502      9.605743
  Au     10.759791      9.492509      8.712098
  Au      9.386799      4.484367      9.882362
  Au      8.104442      8.869313      8.710567
  Au      6.505158      4.736047      9.526702
  Au      5.960058      7.339415      9.102574
  Au      8.921613      5.515599      5.709605
  Mn      8.233216      6.244793      8.195146
11
Coordinates from ORCA-job pbe E -2509.028729268315
  Au      9.904224      7.701671      6.752533
  Au      8.143950      3.532884      7.652393
  Au      7.888225      3.112028      5.063115
  Au     10.407877      6.950067      9.605803
  Au     10.760723      9.490993      8.711638
  Au      9.384128      4.485196      9.882295
  Au      8.104804      8.870321      8.712821
  Au      6.505800      4.736473      9.527631
  Au      5.961437      7.339909      9.104674
  Au      8.920854      5.515361      5.708538
  Mn      8.232403      6.244761      8.192864
11
Coordinates from ORCA-job pbe E -2509.028731992419
  Au      9.901278      7.701676      6.752101
  Au      8.146005      3.532715      7.651234
  Au      7.891149      3.110305      5.062354
  Au     10.406214      6.950146      9.605426
  Au     10.762137      9.490602      8.709744
  Au      9.380612      4.486147      9.884752
  Au      8.106935      8.871276      8.716934
  Au      6.505864      4.736698      9.527074
  Au      5.962813      7.340857      9.107529
  Au      8.920502      5.514796      5.706989
  Mn      8.230918      6.244448      8.190165
11
Coordinates from ORCA-job pbe E -2509.028734487679
  Au      9.899652      7.701610      6.752919
  Au      8.143370      3.533408      7.651220
  Au      7.895366      3.107851      5.062189
  Au     10.406583      6.948686      9.602737
  Au     10.762122      9.490305      8.709982
  Au      9.379657      4.485972      9.882833
  Au      8.106250      8.872291      8.719682
  Au      6.506730      4.738799      9.527980
  Au      5.962347      7.342317      9.110556
  Au      8.922640      5.513057      5.706007
  Mn      8.229708      6.245368      8.188199
11
Coordinates from ORCA-job pbe E -2509.028736444070
  Au      9.898701      7.701531      6.753102
  Au      8.143302      3.533187      7.651245
  Au      7.896095      3.106917      5.062207
  Au     10.405288      6.948497      9.600825
  Au     10.762572      9.491056      8.709566
  Au      9.379761      4.485715      9.882999
  Au      8.107012      8.871937      8.722262
  Au      6.506506      4.739711      9.527316
  Au      5.961751      7.343289      9.112218
  Au      8.924767      5.512106      5.705498
  Mn      8.228670      6.245720      8.187066
11
Coordinates from ORCA-job pbe E -2509.028737852312
  Au      9.898297      7.701727      6.752676
  Au      8.142824      3.532810      7.651749
  Au      7.897054      3.106354      5.062335
  Au     10.404044      6.948387      9.599261
  Au     10.762910      9.491585      8.709140
  Au      9.380658      4.485322      9.882360
  Au      8.107698      8.870936      8.724629
  Au      6.505851      4.740564      9.526848
  Au      5.960814      7.344502      9.113681
  Au      8.926894      5.511307      5.705411
  Mn      8.227383      6.246171      8.186214
11
Coordinates from ORCA-job pbe E -2509.028738744193
  Au      9.898099      7.702284      6.751830
  Au      8.142773      3.532731      7.652148
  Au      7.897697      3.106008      5.062629
  Au     10.403027      6.948631      9.598864
  Au     10.763406      9.491633      8.708728
  Au      9.381110      4.485360      9.882252
  Au      8.108598      8.869691      8.726387
  Au      6.505365      4.740866      9.526478
  Au      5.960313      7.345156      9.114493
  Au      8.927856      5.511128      5.705215
  Mn      8.226183      6.246177      8.185279
11
Coordinates from ORCA-job pbe E -2509.028739373649
  Au      9.898240      7.702652      6.750968
  Au      8.143093      3.532627      7.652473
  Au      7.898503      3.105835      5.062873
  Au     10.402337      6.949027      9.599053
  Au     10.763819      9.491424      8.708299
  Au      9.381074      4.485745      9.882083
  Au      8.109447      8.868550      8.727728
  Au      6.504951      4.740979      9.526241
  Au      5.960096      7.345664      9.115337
  Au      8.927959      5.511150      5.704960
  Mn      8.224907      6.246013      8.184289
11
Coordinates from ORCA-job pbe E -2509.028739604631
  Au      9.898630      7.702690      6.750761
  Au      8.143455      3.532617      7.652584
  Au      7.898520      3.105893      5.063051
  Au     10.402065      6.949415      9.599401
  Au     10.764024      9.491392      8.708126
  Au      9.380735      4.486247      9.882164
  Au      8.109880      8.868008      8.728121
  Au      6.504944      4.740800      9.526088
  Au      5.960169      7.345586      9.115632
  Au      8.927661      5.511312      5.704715
  Mn      8.224343      6.245705      8.183661
