15
E=  -1571.09943530;c=0;m=3
Au      9.492886497054020      6.486269708283180      7.901731253348540
Au      7.732277560996590      8.004583924028990      9.562724832912750
Au     10.711003355768799      8.297663248492320      6.009024434120500
Au      7.874037476300160     10.778722731928450      8.862548792775151
Au      5.642626268956660      9.136547002320899      8.086836338873789
Au      6.619057044514500      6.506112159018010      7.399483412207330
Au     10.213534730235470      9.104949785128371      8.885866821683351
Au      9.642898877066470     11.095000596023320      6.633849923982470
Au      8.477964228353370      6.793786996752620      5.248577216069350
Au      4.361426263837290     10.360299710090221      5.927217451155190
Au      6.970013524862720     11.113584817064581      6.167077664800550
Au     12.167831952624169     10.305752777736551      7.291921295136510
Au      6.140051670281090      8.329660353743479      5.209784901095300
Au      8.636398282730170      9.539765057103359      4.451051107424480
Cr      8.178958266418560      8.759285782285639      7.036908054414780
