11
Coordinates from ORCA-job pbe E -2402.478967671666
  Au      7.086510      8.506257      7.697560
  Au      9.622643      8.785824      9.021929
  Au      5.480956      7.775172      9.750129
  Au      9.030618      6.777506      6.976455
  Au     10.691623      4.584676      7.061699
  Au      8.377243      4.432960      8.575632
  Au     10.648903      6.070873      9.375644
  Au      6.322374      5.034721     10.124683
  Au      9.656267      7.369912     11.524065
  Au      7.010961      7.106009     12.024065
  Cr      7.969200      6.907811      9.574606
11
Coordinates from ORCA-job pbe E -2402.480893082984
  Au      7.089021      8.512171      7.666020
  Au      9.651953      8.769749      8.998138
  Au      5.448368      7.812591      9.761256
  Au      9.020728      6.772905      6.975975
  Au     10.718274      4.634713      7.058352
  Au      8.372084      4.405217      8.571746
  Au     10.642849      6.064785      9.382550
  Au      6.307262      4.982520     10.118266
  Au      9.686202      7.364309     11.533892
  Au      6.998082      7.134938     12.064050
  Cr      7.962475      6.897823      9.576223
11
Coordinates from ORCA-job pbe E -2402.481223857852
  Au      7.075781      8.523807      7.674517
  Au      9.669275      8.760211      8.984041
  Au      5.455897      7.822359      9.762316
  Au      9.013980      6.773733      6.973254
  Au     10.721548      4.643700      7.058011
  Au      8.378804      4.388861      8.563515
  Au     10.642277      6.062713      9.389067
  Au      6.301437      4.963543     10.115022
  Au      9.675613      7.375597     11.548317
  Au      7.003380      7.146188     12.061956
  Cr      7.959307      6.891008      9.576452
11
Coordinates from ORCA-job pbe E -2402.481509112482
  Au      7.072128      8.537778      7.684395
  Au      9.698776      8.736205      8.957925
  Au      5.472635      7.834200      9.776052
  Au      8.984954      6.784256      6.975722
  Au     10.714896      4.660097      7.066997
  Au      8.387364      4.371699      8.554008
  Au     10.629656      6.067365      9.417605
  Au      6.309979      4.924568     10.094541
  Au      9.668468      7.391997     11.554402
  Au      7.003050      7.166331     12.049765
  Cr      7.955392      6.877224      9.575057
11
Coordinates from ORCA-job pbe E -2402.481635184818
  Au      7.075772      8.553039      7.694638
  Au      9.705605      8.728764      8.950734
  Au      5.474719      7.834963      9.781949
  Au      8.973537      6.774005      6.969882
  Au     10.708918      4.670856      7.075096
  Au      8.395622      4.372298      8.548950
  Au     10.628186      6.053481      9.424743
  Au      6.315921      4.913072     10.084562
  Au      9.665072      7.410755     11.554265
  Au      7.000338      7.170053     12.047411
  Cr      7.953608      6.870434      9.574238
11
Coordinates from ORCA-job pbe E -2402.481782268253
  Au      7.088017      8.581638      7.718626
  Au      9.708292      8.713819      8.943571
  Au      5.472401      7.838445      9.792459
  Au      8.945733      6.761551      6.950975
  Au     10.727831      4.673070      7.064658
  Au      8.406237      4.368036      8.540941
  Au     10.632408      6.029930      9.449281
  Au      6.317771      4.901700     10.074606
  Au      9.657314      7.448484     11.547730
  Au      6.993856      7.177485     12.048982
  Cr      7.947439      6.857562      9.574640
11
Coordinates from ORCA-job pbe E -2402.481872177957
  Au      7.100596      8.588646      7.729615
  Au      9.707470      8.696821      8.939000
  Au      5.471310      7.841237      9.787524
  Au      8.934188      6.755890      6.954793
  Au     10.730811      4.688736      7.067456
  Au      8.413465      4.367150      8.536036
  Au     10.624419      6.025951      9.456403
  Au      6.314388      4.898384     10.072846
  Au      9.655608      7.461429     11.536426
  Au      6.999919      7.179197     12.052660
  Cr      7.945125      6.848279      9.573709
11
Coordinates from ORCA-job pbe E -2402.481893226211
  Au      7.102081      8.591114      7.731810
  Au      9.707228      8.694071      8.938252
  Au      5.471141      7.840316      9.786055
  Au      8.935979      6.757908      6.959001
  Au     10.729958      4.686518      7.067627
  Au      8.408085      4.367373      8.539961
  Au     10.623683      6.029859      9.453422
  Au      6.317361      4.894822     10.067886
  Au      9.655499      7.464564     11.536087
  Au      7.001780      7.179791     12.052748
  Cr      7.944502      6.845384      9.573618
11
Coordinates from ORCA-job pbe E -2402.481914230668
  Au      7.104029      8.593757      7.732085
  Au      9.706268      8.697224      8.940068
  Au      5.471254      7.837473      9.787172
  Au      8.937173      6.759538      6.960998
  Au     10.727377      4.681377      7.068353
  Au      8.408857      4.365217      8.539089
  Au     10.623919      6.033742      9.452122
  Au      6.314816      4.893890     10.066843
  Au      9.657778      7.466480     11.535287
  Au      7.001537      7.180283     12.051119
  Cr      7.944291      6.842740      9.573332
11
Coordinates from ORCA-job pbe E -2402.481946652751
  Au      7.110556      8.599703      7.735687
  Au      9.702110      8.704382      8.945667
  Au      5.471004      7.830415      9.786218
  Au      8.939878      6.760236      6.965259
  Au     10.725435      4.675469      7.069166
  Au      8.407250      4.359824      8.539751
  Au     10.625561      6.039456      9.446794
  Au      6.305475      4.892751     10.064363
  Au      9.661301      7.472478     11.532017
  Au      7.005725      7.182776     12.048644
  Cr      7.943002      6.834230      9.572903
11
Coordinates from ORCA-job pbe E -2402.481963536209
  Au      7.115882      8.603827      7.739433
  Au      9.697847      8.711233      8.952508
  Au      5.470077      7.822840      9.783255
  Au      8.943212      6.759270      6.968511
  Au     10.722741      4.671119      7.070739
  Au      8.403882      4.356202      8.541895
  Au     10.627591      6.045986      9.441006
  Au      6.296795      4.892026     10.059960
  Au      9.664597      7.476056     11.529120
  Au      7.012397      7.186371     12.047442
  Cr      7.942277      6.826793      9.572600
11
Coordinates from ORCA-job pbe E -2402.481974628258
  Au      7.120213      8.604474      7.741669
  Au      9.694504      8.715807      8.957620
  Au      5.468750      7.815023      9.781198
  Au      8.943378      6.759793      6.971540
  Au     10.721175      4.669679      7.072582
  Au      8.401148      4.353767      8.544190
  Au     10.631063      6.049070      9.435473
  Au      6.288598      4.892108     10.053756
  Au      9.667121      7.477736     11.528929
  Au      7.019021      7.192708     12.046819
  Cr      7.942324      6.821556      9.572691
11
Coordinates from ORCA-job pbe E -2402.482006174047
  Au      7.126575      8.607026      7.748087
  Au      9.689259      8.722810      8.969522
  Au      5.464614      7.795778      9.778664
  Au      8.943017      6.755135      6.974590
  Au     10.719029      4.668335      7.077004
  Au      8.394920      4.349403      8.548250
  Au     10.638008      6.059865      9.427005
  Au      6.269967      4.893073     10.035998
  Au      9.674076      7.477996     11.528565
  Au      7.034789      7.211061     12.045625
  Cr      7.943042      6.811238      9.573158
11
Coordinates from ORCA-job pbe E -2402.482087727090
  Au      7.152826      8.613819      7.777936
  Au      9.667732      8.747322      9.020917
  Au      5.443479      7.702655      9.773304
  Au      8.933695      6.734003      6.988821
  Au     10.711542      4.665512      7.096620
  Au      8.370724      4.330675      8.565059
  Au     10.670492      6.105135      9.390856
  Au      6.186803      4.904174      9.946799
  Au      9.706525      7.476025     11.532589
  Au      7.104964      7.304121     12.036322
  Cr      7.948515      6.768279      9.577247
11
Coordinates from ORCA-job pbe E -2402.482262250259
  Au      7.143186      8.610078      7.776848
  Au      9.674865      8.739117      9.011592
  Au      5.444934      7.712827      9.778328
  Au      8.929358      6.731988      6.985463
  Au     10.716191      4.672252      7.094628
  Au      8.373300      4.331602      8.560929
  Au     10.669676      6.100307      9.399180
  Au      6.194595      4.900585      9.946382
  Au      9.708584      7.471253     11.536004
  Au      7.093362      7.306696     12.038466
  Cr      7.949247      6.775019      9.578650
11
Coordinates from ORCA-job pbe E -2402.483233236980
  Au      7.127157      8.603730      7.821532
  Au      9.683790      8.718805      9.022512
  Au      5.419927      7.639413      9.813542
  Au      8.886622      6.696703      6.993671
  Au     10.731637      4.696669      7.110847
  Au      8.365680      4.307798      8.551825
  Au     10.705903      6.129179      9.402748
  Au      6.131988      4.899057      9.809002
  Au      9.757978      7.452717     11.559766
  Au      7.126120      7.456316     12.026195
  Cr      7.960494      6.751334      9.594828
11
Coordinates from ORCA-job pbe E -2402.484527502535
  Au      7.096919      8.591258      7.870934
  Au      9.697772      8.676326      9.004296
  Au      5.387425      7.583290      9.881125
  Au      8.842698      6.678463      7.012971
  Au     10.745751      4.706287      7.113343
  Au      8.384980      4.286305      8.522064
  Au     10.735616      6.132578      9.430016
  Au      6.099703      4.894331      9.657205
  Au      9.791849      7.442356     11.588435
  Au      7.141354      7.618704     12.006876
  Cr      7.973230      6.741821      9.619202
11
Coordinates from ORCA-job pbe E -2402.485505833379
  Au      7.074344      8.573374      7.929643
  Au      9.698307      8.641283      8.993477
  Au      5.352002      7.510822      9.948862
  Au      8.810309      6.665701      7.039501
  Au     10.765125      4.721441      7.121484
  Au      8.398464      4.265070      8.490775
  Au     10.760074      6.120940      9.452303
  Au      6.057225      4.907292      9.505756
  Au      9.822667      7.444083     11.603915
  Au      7.176349      7.783001     11.973246
  Cr      7.982431      6.718715      9.647506
11
Coordinates from ORCA-job pbe E -2402.485940841364
  Au      7.051903      8.554606      7.976188
  Au      9.696373      8.587806      8.935405
  Au      5.327544      7.526825     10.024198
  Au      8.812048      6.702614      7.070039
  Au     10.788429      4.713724      7.108747
  Au      8.440074      4.266446      8.430796
  Au     10.744562      6.045136      9.498326
  Au      6.079319      4.888026      9.434570
  Au      9.804364      7.488417     11.589197
  Au      7.170915      7.862666     11.961139
  Cr      7.981767      6.715456      9.677863
11
Coordinates from ORCA-job pbe E -2402.487415265348
  Au      7.059996      8.545166      8.040401
  Au      9.682717      8.594976      8.971513
  Au      5.306842      7.463656     10.034347
  Au      8.804563      6.685491      7.084289
  Au     10.806638      4.725785      7.132036
  Au      8.416394      4.250772      8.412277
  Au     10.750307      6.048637      9.494001
  Au      6.028533      4.902973      9.348432
  Au      9.826881      7.523782     11.569035
  Au      7.235664      7.951563     11.918572
  Cr      7.978761      6.658919      9.701564
11
Coordinates from ORCA-job pbe E -2402.488316194047
  Au      7.038548      8.506166      8.087242
  Au      9.655645      8.616825      8.990611
  Au      5.298880      7.426641     10.041940
  Au      8.837371      6.703539      7.104568
  Au     10.813624      4.713320      7.143571
  Au      8.401539      4.247950      8.390058
  Au     10.742511      6.036083      9.489594
  Au      6.002484      4.918190      9.289389
  Au      9.858208      7.533148     11.555389
  Au      7.270318      8.028231     11.881358
  Cr      7.978170      6.621628      9.732750
11
Coordinates from ORCA-job pbe E -2402.489398672379
  Au      6.993762      8.447935      8.144623
  Au      9.633047      8.631802      9.005079
  Au      5.300663      7.424807     10.056280
  Au      8.874269      6.718838      7.117243
  Au     10.825736      4.717927      7.148559
  Au      8.389049      4.253416      8.352053
  Au     10.718384      6.010723      9.504977
  Au      5.989615      4.910084      9.224196
  Au      9.892513      7.538610     11.547139
  Au      7.307993      8.123783     11.827950
  Cr      7.972266      6.573796      9.778368
11
Coordinates from ORCA-job pbe E -2402.490070471189
  Au      6.963872      8.383316      8.182389
  Au      9.589004      8.635551      9.013271
  Au      5.280841      7.397973     10.102620
  Au      8.924838      6.746425      7.144824
  Au     10.831118      4.713316      7.133478
  Au      8.388693      4.257296      8.323631
  Au     10.700995      5.980972      9.520983
  Au      5.976059      4.927258      9.141163
  Au      9.923549      7.537947     11.551436
  Au      7.349874      8.237621     11.763995
  Cr      7.968452      6.534046      9.828678
11
Coordinates from ORCA-job pbe E -2402.490902290342
  Au      6.941233      8.303770      8.177457
  Au      9.527004      8.664507      9.065639
  Au      5.274335      7.389781     10.158538
  Au      8.984383      6.770673      7.151174
  Au     10.841391      4.708243      7.118800
  Au      8.391083      4.268602      8.308313
  Au     10.676762      5.953953      9.519269
  Au      5.957493      4.946913      9.087633
  Au      9.963660      7.516652     11.552944
  Au      7.382063      8.332336     11.692047
  Cr      7.957890      6.496289      9.874654
11
Coordinates from ORCA-job pbe E -2402.491694075914
  Au      6.909902      8.215136      8.161424
  Au      9.452387      8.684237      9.130635
  Au      5.273070      7.375231     10.218086
  Au      9.035133      6.796338      7.166316
  Au     10.852293      4.704067      7.109251
  Au      8.392176      4.287255      8.290247
  Au     10.658230      5.925414      9.519686
  Au      5.942319      4.978262      9.027224
  Au      9.993256      7.497610     11.558485
  Au      7.442603      8.428110     11.607703
  Cr      7.945929      6.460060      9.917413
11
Coordinates from ORCA-job pbe E -2402.492678760932
  Au      6.884504      8.108665      8.077249
  Au      9.346962      8.721822      9.218897
  Au      5.303003      7.387448     10.265244
  Au      9.087895      6.822317      7.163753
  Au     10.858271      4.690457      7.095882
  Au      8.391739      4.314371      8.290153
  Au     10.647297      5.900709      9.506075
  Au      5.935575      5.015678      9.008858
  Au     10.030376      7.453951     11.571895
  Au      7.474858      8.484615     11.567528
  Cr      7.936818      6.451688      9.940935
11
Coordinates from ORCA-job pbe E -2402.493040910966
  Au      6.834607      8.000881      8.045179
  Au      9.232681      8.738957      9.273817
  Au      5.317534      7.384662     10.321384
  Au      9.139692      6.851110      7.183630
  Au     10.875992      4.688509      7.098785
  Au      8.393508      4.335917      8.271365
  Au     10.631873      5.873374      9.514514
  Au      5.926220      5.063063      8.944478
  Au     10.064160      7.408919     11.579458
  Au      7.556169      8.575962     11.497976
  Cr      7.924861      6.430367      9.975882
11
Coordinates from ORCA-job pbe E -2402.493580976385
  Au      6.841674      8.023294      8.054672
  Au      9.284235      8.707040      9.212648
  Au      5.331407      7.396699     10.305285
  Au      9.110997      6.853778      7.179872
  Au     10.872911      4.697944      7.087885
  Au      8.405311      4.343988      8.256168
  Au     10.639088      5.859669      9.522154
  Au      5.944644      5.041002      8.985816
  Au     10.029200      7.404824     11.596130
  Au      7.504279      8.571520     11.538800
  Cr      7.933552      6.451964      9.967037
11
Coordinates from ORCA-job pbe E -2402.494230536005
  Au      6.815838      7.933404      8.024792
  Au      9.214514      8.745088      9.247192
  Au      5.354934      7.415795     10.322289
  Au      9.180859      6.882331      7.185272
  Au     10.864463      4.675258      7.074812
  Au      8.393103      4.356342      8.256673
  Au     10.624498      5.835316      9.519031
  Au      5.954686      5.073211      8.961442
  Au     10.051744      7.395381     11.576460
  Au      7.507399      8.588493     11.546458
  Cr      7.935260      6.451100      9.992047
11
Coordinates from ORCA-job pbe E -2402.494643638358
  Au      6.782083      7.843740      8.010596
  Au      9.127806      8.774199      9.251824
  Au      5.366686      7.424122     10.345551
  Au      9.239261      6.905665      7.209106
  Au     10.872579      4.664143      7.082905
  Au      8.384020      4.359022      8.240992
  Au     10.619373      5.817366      9.530484
  Au      5.949473      5.116002      8.913060
  Au     10.053549      7.377631     11.546656
  Au      7.566161      8.619896     11.561698
  Cr      7.936308      6.449934     10.013596
11
Coordinates from ORCA-job pbe E -2402.495173040210
  Au      6.798689      7.837625      8.009292
  Au      9.109656      8.779217      9.237821
  Au      5.381807      7.421305     10.361531
  Au      9.235959      6.908959      7.222626
  Au     10.859181      4.663813      7.082379
  Au      8.370356      4.352856      8.231599
  Au     10.636183      5.804195      9.540243
  Au      5.954571      5.122542      8.891734
  Au     10.052097      7.387471     11.543377
  Au      7.549007      8.627092     11.565553
  Cr      7.949792      6.446645     10.020313
11
Coordinates from ORCA-job pbe E -2402.494975625430
  Au      6.815840      7.816056      7.975358
  Au      9.093001      8.795925      9.204119
  Au      5.402822      7.433984     10.349451
  Au      9.285968      6.933227      7.268049
  Au     10.840176      4.657555      7.045422
  Au      8.385072      4.363870      8.209214
  Au     10.633588      5.784552      9.530195
  Au      5.925490      5.094189      8.945469
  Au     10.002006      7.390494     11.552146
  Au      7.554654      8.633080     11.602692
  Cr      7.958680      6.448788     10.024354
11
Coordinates from ORCA-job pbe E -2402.495711343310
  Au      6.798324      7.748338      7.958857
  Au      9.030942      8.828773      9.225119
  Au      5.417491      7.437843     10.374971
  Au      9.308727      6.933418      7.264602
  Au     10.839604      4.639843      7.055648
  Au      8.365306      4.374643      8.200812
  Au     10.643652      5.762665      9.537357
  Au      5.938559      5.137717      8.895530
  Au     10.035886      7.382574     11.538390
  Au      7.546488      8.651850     11.615415
  Cr      7.972318      6.454058     10.039765
11
Coordinates from ORCA-job pbe E -2402.495899236434
  Au      6.810095      7.787538      7.965645
  Au      9.018174      8.848799      9.221057
  Au      5.424138      7.428969     10.362759
  Au      9.301752      6.925373      7.274686
  Au     10.844605      4.633664      7.081668
  Au      8.341674      4.364828      8.194684
  Au     10.655331      5.770966      9.547021
  Au      5.924651      5.127522      8.895679
  Au     10.045590      7.399286     11.509418
  Au      7.550089      8.622686     11.624892
  Cr      7.981200      6.442091     10.028958
11
Coordinates from ORCA-job pbe E -2402.496009459352
  Au      6.799914      7.761467      7.944333
  Au      8.984283      8.874503      9.214171
  Au      5.434152      7.433511     10.361249
  Au      9.329545      6.935164      7.293924
  Au     10.839632      4.614016      7.084548
  Au      8.335808      4.368277      8.183994
  Au     10.661978      5.750464      9.550410
  Au      5.915507      5.138909      8.888314
  Au     10.045833      7.417936     11.490106
  Au      7.555768      8.609568     11.668149
  Cr      7.994876      6.447904     10.027270
11
Coordinates from ORCA-job pbe E -2402.496115106374
  Au      6.785733      7.732593      7.917380
  Au      8.939545      8.882517      9.233850
  Au      5.459139      7.429285     10.377379
  Au      9.325034      6.947038      7.323931
  Au     10.831955      4.614158      7.081282
  Au      8.332575      4.383852      8.163689
  Au     10.675626      5.705568      9.573855
  Au      5.911824      5.148602      8.867665
  Au     10.058966      7.431397     11.492363
  Au      7.568111      8.636347     11.649959
  Cr      8.008790      6.440363     10.025114
11
Coordinates from ORCA-job pbe E -2402.496271051999
  Au      6.792870      7.743839      7.915481
  Au      8.943422      8.890624      9.231398
  Au      5.456153      7.431187     10.362998
  Au      9.338306      6.942860      7.331502
  Au     10.827205      4.614129      7.078275
  Au      8.328050      4.381703      8.167946
  Au     10.668770      5.714020      9.574385
  Au      5.906153      5.139728      8.884948
  Au     10.062752      7.437612     11.480078
  Au      7.563071      8.616062     11.661582
  Cr      8.010546      6.439957     10.017874
11
Coordinates from ORCA-job pbe E -2402.496327764701
  Au      6.787182      7.745956      7.918317
  Au      8.931854      8.896883      9.224495
  Au      5.457951      7.432059     10.363838
  Au      9.343756      6.944333      7.341234
  Au     10.830071      4.614202      7.086086
  Au      8.323493      4.381711      8.161461
  Au     10.664978      5.700828      9.586946
  Au      5.904878      5.141439      8.879173
  Au     10.070566      7.449770     11.463386
  Au      7.566992      8.606776     11.670695
  Cr      8.015576      6.437764     10.010836
11
Coordinates from ORCA-job pbe E -2402.496372210976
  Au      6.784298      7.742374      7.912698
  Au      8.921254      8.904661      9.227179
  Au      5.461223      7.432076     10.364078
  Au      9.352155      6.949215      7.356676
  Au     10.827972      4.614948      7.086981
  Au      8.318591      4.384246      8.151916
  Au     10.662746      5.687393      9.596340
  Au      5.901438      5.137683      8.885566
  Au     10.078107      7.456023     11.455630
  Au      7.567546      8.605690     11.669066
  Cr      8.021968      6.437412     10.000339
11
Coordinates from ORCA-job pbe E -2402.496407331579
  Au      6.782843      7.739213      7.913853
  Au      8.914814      8.911395      9.227003
  Au      5.461391      7.431836     10.365928
  Au      9.356256      6.952798      7.364468
  Au     10.825811      4.615567      7.087464
  Au      8.316157      4.383164      8.143107
  Au     10.662040      5.676324      9.604941
  Au      5.901623      5.135131      8.889056
  Au     10.080284      7.459945     11.453606
  Au      7.569606      8.607053     11.667346
  Cr      8.026472      6.439295      9.989696
11
Coordinates from ORCA-job pbe E -2402.496433531986
  Au      6.783105      7.731665      7.915558
  Au      8.912222      8.919473      9.227618
  Au      5.461592      7.433130     10.370403
  Au      9.362350      6.958242      7.368599
  Au     10.824414      4.615068      7.088219
  Au      8.312312      4.381166      8.135540
  Au     10.661488      5.670589      9.606723
  Au      5.904130      5.132570      8.896124
  Au     10.078651      7.455903     11.455668
  Au      7.567674      8.610388     11.662517
  Cr      8.029361      6.443527      9.979498
11
Coordinates from ORCA-job pbe E -2402.496394950218
  Au      6.781845      7.734899      7.916111
  Au      8.913173      8.926060      9.226315
  Au      5.454354      7.434756     10.369162
  Au      9.360335      6.956349      7.366254
  Au     10.828010      4.615584      7.091707
  Au      8.317531      4.373396      8.137523
  Au     10.659998      5.675232      9.606744
  Au      5.902593      5.130159      8.902209
  Au     10.070775      7.451060     11.459508
  Au      7.583439      8.604331     11.667060
  Cr      8.025245      6.449894      9.963875
11
Coordinates from ORCA-job pbe E -2402.496448061337
  Au      6.784814      7.736067      7.919423
  Au      8.920414      8.921162      9.226229
  Au      5.458138      7.432030     10.370370
  Au      9.357046      6.956270      7.363769
  Au     10.823851      4.615399      7.087251
  Au      8.314802      4.377580      8.138984
  Au     10.664125      5.675981      9.603800
  Au      5.907282      5.129972      8.900241
  Au     10.071024      7.448539     11.462988
  Au      7.568541      8.611457     11.659651
  Cr      8.027259      6.447264      9.973763
11
Coordinates from ORCA-job pbe E -2402.496451913790
  Au      6.783571      7.734762      7.916238
  Au      8.915801      8.923256      9.226248
  Au      5.460657      7.432948     10.370452
  Au      9.359445      6.956437      7.366111
  Au     10.824222      4.614062      7.087516
  Au      8.314512      4.377661      8.140993
  Au     10.664560      5.674949      9.603115
  Au      5.906377      5.132164      8.898591
  Au     10.071337      7.449064     11.459890
  Au      7.568804      8.609276     11.663217
  Cr      8.028011      6.447141      9.974098
11
Coordinates from ORCA-job pbe E -2402.496457210625
  Au      6.781808      7.738115      7.915397
  Au      8.915699      8.924440      9.225977
  Au      5.461562      7.432249     10.370566
  Au      9.357110      6.955338      7.367316
  Au     10.824521      4.613952      7.087365
  Au      8.316220      4.375737      8.145879
  Au     10.666346      5.675500      9.602046
  Au      5.907166      5.133271      8.897036
  Au     10.069445      7.446160     11.459460
  Au      7.569225      8.608900     11.663551
  Cr      8.028197      6.448058      9.971875
11
Coordinates from ORCA-job pbe E -2402.496461716610
  Au      6.779553      7.743704      7.915724
  Au      8.915760      8.926315      9.225510
  Au      5.462296      7.431243     10.370724
  Au      9.353162      6.953446      7.368579
  Au     10.824037      4.614615      7.085549
  Au      8.319892      4.371906      8.153373
  Au     10.668466      5.674554      9.601378
  Au      5.909354      5.134331      8.894352
  Au     10.066812      7.442144     11.460040
  Au      7.569249      8.609831     11.663109
  Cr      8.028715      6.449633      9.968132
11
Coordinates from ORCA-job pbe E -2402.496462837732
  Au      6.778658      7.745869      7.916411
  Au      8.916604      8.926239      9.225807
  Au      5.461924      7.431051     10.370808
  Au      9.351132      6.953009      7.368399
  Au     10.824306      4.615601      7.084832
  Au      8.321535      4.369953      8.155927
  Au     10.668341      5.673721      9.601124
  Au      5.910448      5.134368      8.893415
  Au     10.066737      7.440574     11.460593
  Au      7.568826      8.611016     11.662044
  Cr      8.028785      6.450318      9.967108
11
Coordinates from ORCA-job pbe E -2402.496463425322
  Au      6.778273      7.747059      7.916837
  Au      8.916562      8.926287      9.226241
  Au      5.461601      7.431457     10.370187
  Au      9.350077      6.952775      7.368229
  Au     10.824123      4.616425      7.083910
  Au      8.322946      4.368207      8.157657
  Au     10.667317      5.672432      9.601297
  Au      5.911444      5.134339      8.892457
  Au     10.067520      7.440634     11.460505
  Au      7.568553      8.611352     11.662129
  Cr      8.028881      6.450754      9.967019
11
Coordinates from ORCA-job pbe E -2402.496463689812
  Au      6.778316      7.747145      7.916668
  Au      8.916520      8.926192      9.226635
  Au      5.461448      7.431864     10.369730
  Au      9.349756      6.952877      7.368151
  Au     10.824300      4.616808      7.083765
  Au      8.323154      4.367711      8.157752
  Au     10.666594      5.671889      9.601332
  Au      5.911790      5.134167      8.892675
  Au     10.068135      7.440873     11.460300
  Au      7.568430      8.611152     11.662207
  Cr      8.028854      6.451043      9.967254
