16
E=  -1708.90282637;c=0;m=4
Au      3.280980205944750      7.427827572666660      9.371358969822049
Au      7.967270356438550      6.147102560440910      9.617017738404570
Au      4.578260804658780      9.677198526197881      8.291193648398130
Au      7.176905231298510     10.313114065211581      8.970427244776420
Au      9.991541361003380     10.144805881243800      9.268196061224220
Au      5.756768889723870      8.056459488327270     10.395244642251781
Au     10.514094150069480      7.391126539990040      9.695569615613220
Au      8.335956565409949      8.644890777729991     11.031982786343869
Au      7.088595217628750      6.221571395280640      6.782515138483140
Au      6.541942879873700      9.102555244385799      6.335519805115660
Au      4.484269112942560      7.249464842517440      6.750153907683040
Au      8.924035476871641      7.882392259662900      5.400439846476570
Au      9.007641091384210     10.390841915505931      6.671315417047710
Au      5.355365962280950      5.581588523851560      8.926738344371319
Au      9.829343776933190      6.060271671832190      7.343505501208340
Fe      8.584986727537739      8.235819885155440      8.092211482779961
