16
Coordinates from ORCA-job pbe E -3300.905940968580
  Au      3.280980      7.427828      9.371359
  Au      7.967270      6.147103      9.617018
  Au      4.578261      9.677199      8.291194
  Au      7.176905     10.313114      8.970427
  Au      9.991541     10.144806      9.268196
  Au      5.756769      8.056459     10.395245
  Au     10.514094      7.391127      9.695570
  Au      8.335957      8.644891     11.031983
  Au      7.088595      6.221571      6.782515
  Au      6.541943      9.102555      6.335520
  Au      4.484269      7.249465      6.750154
  Au      8.924035      7.882392      5.400440
  Au      9.007641     10.390842      6.671315
  Au      5.355366      5.581589      8.926738
  Au      9.829344      6.060272      7.343506
  Fe      8.584987      8.235820      8.092211
16
Coordinates from ORCA-job pbe E -3300.908326195645
  Au      3.323992      7.434196      9.359533
  Au      7.953539      6.149847      9.605067
  Au      4.615842      9.661932      8.289009
  Au      7.165424     10.302207      8.960745
  Au      9.972877     10.138569      9.267093
  Au      5.775903      8.056934     10.374918
  Au     10.494633      7.389695      9.693550
  Au      8.319618      8.639594     11.018113
  Au      7.087403      6.242674      6.796245
  Au      6.547754      9.087003      6.354882
  Au      4.526761      7.260052      6.765105
  Au      8.883601      7.874384      5.400253
  Au      8.986091     10.404394      6.685661
  Au      5.384730      5.608101      8.917890
  Au      9.813539      6.045082      7.362256
  Fe      8.566250      8.232367      8.093070
16
Coordinates from ORCA-job pbe E -3300.908750754966
  Au      3.315599      7.433846      9.365256
  Au      7.950225      6.141001      9.599942
  Au      4.622824      9.657879      8.289609
  Au      7.158989     10.306987      8.953833
  Au      9.968378     10.133609      9.271485
  Au      5.793213      8.059051     10.366836
  Au     10.488944      7.393956      9.696199
  Au      8.325513      8.639251     11.009870
  Au      7.079369      6.240789      6.795215
  Au      6.539754      9.084162      6.353690
  Au      4.526117      7.261696      6.773076
  Au      8.897850      7.875626      5.392608
  Au      8.985034     10.424239      6.693608
  Au      5.388915      5.614852      8.916631
  Au      9.820323      6.030074      7.375340
  Fe      8.556913      8.230014      8.090191
16
Coordinates from ORCA-job pbe E -3300.909286172845
  Au      3.304726      7.432344      9.367203
  Au      7.948790      6.123588      9.598298
  Au      4.624053      9.644905      8.290411
  Au      7.151292     10.321317      8.948006
  Au      9.973881     10.130153      9.269055
  Au      5.806289      8.058604     10.347964
  Au     10.493391      7.398249      9.692177
  Au      8.341366      8.640759     11.002137
  Au      7.086534      6.243073      6.790072
  Au      6.547881      9.081434      6.348552
  Au      4.526538      7.263651      6.782166
  Au      8.896616      7.877311      5.407803
  Au      8.972741     10.448201      6.705053
  Au      5.385083      5.628248      8.913525
  Au      9.817954      6.008719      7.393207
  Fe      8.540824      8.226474      8.087761
16
Coordinates from ORCA-job pbe E -3300.909774732356
  Au      3.294038      7.432561      9.380155
  Au      7.955684      6.102126      9.600832
  Au      4.620532      9.631267      8.291016
  Au      7.149756     10.343387      8.944590
  Au      9.977819     10.129284      9.260980
  Au      5.825772      8.058189     10.321443
  Au     10.497172      7.397973      9.683905
  Au      8.354547      8.641002     10.989744
  Au      7.086959      6.238217      6.780055
  Au      6.547535      9.081399      6.337223
  Au      4.522901      7.264139      6.788352
  Au      8.922781      7.886566      5.437808
  Au      8.957074     10.469245      6.719001
  Au      5.377029      5.640625      8.910828
  Au      9.810839      5.989405      7.412503
  Fe      8.517520      8.221647      8.084957
16
Coordinates from ORCA-job pbe E -3300.910045017215
  Au      3.288619      7.434202      9.395055
  Au      7.961860      6.083625      9.608277
  Au      4.622837      9.630688      8.290595
  Au      7.147816     10.363451      8.946518
  Au      9.982041     10.128210      9.251884
  Au      5.840582      8.057764     10.299322
  Au     10.501118      7.397990      9.674675
  Au      8.358953      8.640775     10.983319
  Au      7.088016      6.232542      6.772941
  Au      6.547437      9.084071      6.329116
  Au      4.526038      7.263642      6.781428
  Au      8.946519      7.896008      5.469237
  Au      8.938403     10.478242      6.724083
  Au      5.378741      5.642159      8.910391
  Au      9.796380      5.976435      7.420777
  Fe      8.492597      8.217226      8.085772
16
Coordinates from ORCA-job pbe E -3300.910199417223
  Au      3.300280      7.436862      9.399141
  Au      7.969805      6.072355      9.619596
  Au      4.620090      9.628078      8.288599
  Au      7.150669     10.379398      8.953802
  Au      9.984907     10.125642      9.243990
  Au      5.844389      8.055222     10.278212
  Au     10.503020      7.398941      9.666292
  Au      8.362990      8.641338     10.981108
  Au      7.081830      6.227654      6.770676
  Au      6.540008      9.086308      6.326162
  Au      4.526118      7.262870      6.778914
  Au      8.967811      7.903279      5.488402
  Au      8.930234     10.480247      6.725358
  Au      5.376375      5.642949      8.908501
  Au      9.788048      5.971478      7.423398
  Fe      8.471384      8.214411      8.091240
16
Coordinates from ORCA-job pbe E -3300.910380085658
  Au      3.309659      7.439074      9.402497
  Au      7.976009      6.066404      9.631209
  Au      4.622879      9.639043      8.284386
  Au      7.153790     10.389865      8.962595
  Au      9.982456     10.120764      9.236439
  Au      5.855409      8.055316     10.264779
  Au     10.499342      7.400281      9.657686
  Au      8.359559      8.640723     10.980000
  Au      7.081985      6.226464      6.769000
  Au      6.539715      9.088167      6.324721
  Au      4.526485      7.261228      6.770631
  Au      8.972754      7.906124      5.498866
  Au      8.924753     10.477792      6.727064
  Au      5.383680      5.632551      8.907947
  Au      9.780931      5.971376      7.425165
  Fe      8.448553      8.211857      8.100404
16
Coordinates from ORCA-job pbe E -3300.910570509859
  Au      3.323624      7.440726      9.395296
  Au      7.979863      6.061458      9.644362
  Au      4.627404      9.654443      8.276872
  Au      7.154613     10.398651      8.972760
  Au      9.983573     10.115204      9.231391
  Au      5.862003      8.054354     10.249735
  Au     10.498750      7.404431      9.650736
  Au      8.360083      8.641945     10.986633
  Au      7.080414      6.227333      6.772194
  Au      6.538059      9.089096      6.328706
  Au      4.526742      7.260534      6.767061
  Au      8.970238      7.905860      5.500478
  Au      8.921492     10.471314      6.724567
  Au      5.393359      5.617460      8.904965
  Au      9.775471      5.974642      7.421672
  Fe      8.422271      8.209580      8.115961
16
Coordinates from ORCA-job pbe E -3300.910708563895
  Au      3.335845      7.441229      9.386718
  Au      7.981032      6.057150      9.649883
  Au      4.628909      9.667327      8.271923
  Au      7.154262     10.404936      8.976153
  Au      9.981848     10.111388      9.229045
  Au      5.871730      8.053377     10.233503
  Au     10.495653      7.406180      9.646912
  Au      8.364157      8.643434     10.991623
  Au      7.078612      6.230261      6.771349
  Au      6.536890      9.086875      6.328004
  Au      4.521351      7.260382      6.774180
  Au      8.965299      7.904330      5.499998
  Au      8.926895     10.466174      6.726673
  Au      5.400753      5.605074      8.903930
  Au      9.777474      5.981420      7.422184
  Fe      8.397248      8.207491      8.131314
16
Coordinates from ORCA-job pbe E -3300.910796187880
  Au      3.338643      7.440869      9.378570
  Au      7.982401      6.051677      9.649334
  Au      4.628732      9.675820      8.268736
  Au      7.153284     10.409665      8.973427
  Au      9.981984     10.111392      9.231294
  Au      5.880239      8.053093     10.220763
  Au     10.496297      7.407299      9.648441
  Au      8.372157      8.645725     10.997746
  Au      7.075839      6.232130      6.769580
  Au      6.535618      9.083136      6.326501
  Au      4.518941      7.262069      6.784847
  Au      8.962717      7.904067      5.501516
  Au      8.929556     10.459622      6.726543
  Au      5.402362      5.596107      8.903058
  Au      9.779099      5.988407      7.419512
  Fe      8.380089      8.205951      8.143524
16
Coordinates from ORCA-job pbe E -3300.910833502816
  Au      3.338807      7.440913      9.382001
  Au      7.981878      6.048398      9.645779
  Au      4.626753      9.676023      8.270360
  Au      7.152198     10.412291      8.969268
  Au      9.980935     10.112485      9.232806
  Au      5.884326      8.052669     10.215254
  Au     10.495188      7.406061      9.650302
  Au      8.373172      8.645863     10.998113
  Au      7.076279      6.231912      6.766018
  Au      6.535555      9.082503      6.322086
  Au      4.518662      7.262708      6.789536
  Au      8.966262      7.905005      5.502856
  Au      8.931213     10.458675      6.727968
  Au      5.401564      5.596002      8.905200
  Au      9.778951      5.989986      7.420512
  Fe      8.376214      8.205536      8.145331
16
Coordinates from ORCA-job pbe E -3300.910905263804
  Au      3.335222      7.441582      9.388289
  Au      7.984844      6.035822      9.634652
  Au      4.621928      9.679557      8.272190
  Au      7.151041     10.421880      8.954942
  Au      9.977395     10.116906      9.238697
  Au      5.898035      8.052154     10.195282
  Au     10.494032      7.403457      9.656868
  Au      8.380047      8.647655     11.003619
  Au      7.073181      6.230930      6.757816
  Au      6.534821      9.077973      6.312338
  Au      4.523805      7.266422      6.805511
  Au      8.969662      7.907637      5.508093
  Au      8.934664     10.450086      6.731262
  Au      5.395405      5.590860      8.907983
  Au      9.780964      5.999935      7.420054
  Fe      8.362911      8.204174      8.155797
16
Coordinates from ORCA-job pbe E -3300.910923424347
  Au      3.336303      7.441734      9.391543
  Au      7.983940      6.033052      9.630570
  Au      4.619804      9.681347      8.273271
  Au      7.150136     10.424168      8.950192
  Au      9.976115     10.116361      9.242586
  Au      5.900897      8.051244     10.189115
  Au     10.491791      7.404695      9.660659
  Au      8.378059      8.647220     11.006187
  Au      7.075305      6.229544      6.757548
  Au      6.534038      9.079947      6.310771
  Au      4.524598      7.267724      6.810720
  Au      8.969973      7.907365      5.506020
  Au      8.938573     10.445471      6.728862
  Au      5.394836      5.588528      8.910351
  Au      9.781221      6.004104      7.416384
  Fe      8.362368      8.204529      8.158614
16
Coordinates from ORCA-job pbe E -3300.910947160585
  Au      3.336632      7.442134      9.395270
  Au      7.984273      6.028486      9.626937
  Au      4.617441      9.684847      8.273950
  Au      7.150006     10.428739      8.945425
  Au      9.973511     10.116544      9.245099
  Au      5.903597      8.050087     10.179938
  Au     10.489193      7.405017      9.662820
  Au      8.374489      8.646621     11.010464
  Au      7.075917      6.228255      6.759787
  Au      6.534622      9.081979      6.311215
  Au      4.528169      7.268593      6.815548
  Au      8.964960      7.906325      5.501850
  Au      8.944659     10.440116      6.727152
  Au      5.393158      5.584023      8.911737
  Au      9.784936      6.010090      7.413285
  Fe      8.362395      8.205175      8.162914
16
Coordinates from ORCA-job pbe E -3300.910972881782
  Au      3.336772      7.443391      9.399583
  Au      7.987019      6.020108      9.623687
  Au      4.615222      9.690353      8.273887
  Au      7.150454     10.437263      8.939219
  Au      9.967937     10.115701      9.247632
  Au      5.908745      8.048166     10.162446
  Au     10.484395      7.407011      9.664481
  Au      8.369933      8.644958     11.014912
  Au      7.078469      6.226181      6.766846
  Au      6.534733      9.085542      6.316655
  Au      4.533761      7.271118      6.821086
  Au      8.955360      7.904197      5.496217
  Au      8.952404     10.433993      6.725155
  Au      5.389746      5.576200      8.912806
  Au      9.790832      6.016881      7.409493
  Fe      8.362177      8.205970      8.169285
16
Coordinates from ORCA-job pbe E -3300.910980721969
  Au      3.337123      7.443204      9.400050
  Au      7.987478      6.016797      9.623587
  Au      4.613626      9.692956      8.274072
  Au      7.150602     10.441824      8.938225
  Au      9.966183     10.116432      9.248104
  Au      5.911471      8.047124     10.153923
  Au     10.483432      7.406498      9.663966
  Au      8.368688      8.644169     11.015631
  Au      7.077485      6.225930      6.771509
  Au      6.536347      9.087216      6.319552
  Au      4.534947      7.270316      6.822596
  Au      8.952155      7.903949      5.495908
  Au      8.954695     10.433218      6.723775
  Au      5.388947      5.573384      8.912806
  Au      9.793068      6.017603      7.408538
  Fe      8.361711      8.206411      8.171147
16
Coordinates from ORCA-job pbe E -3300.910987890798
  Au      3.336948      7.443374      9.399727
  Au      7.988325      6.013727      9.624024
  Au      4.612223      9.695240      8.274312
  Au      7.150007     10.445535      8.937085
  Au      9.964247     10.118263      9.247990
  Au      5.914572      8.046064     10.145142
  Au     10.483278      7.405756      9.663368
  Au      8.369234      8.642937     11.015071
  Au      7.078332      6.226418      6.775410
  Au      6.535619      9.087318      6.323369
  Au      4.534642      7.271265      6.823159
  Au      8.950479      7.903720      5.497460
  Au      8.956483     10.433874      6.723232
  Au      5.387274      5.570299      8.913605
  Au      9.794575      6.016506      7.408395
  Fe      8.361718      8.206735      8.172041
16
Coordinates from ORCA-job pbe E -3300.910993838611
  Au      3.336894      7.443422      9.398895
  Au      7.988074      6.012631      9.623623
  Au      4.610603      9.697212      8.275563
  Au      7.149155     10.447118      8.935928
  Au      9.962809     10.119845      9.248771
  Au      5.917407      8.045423     10.138617
  Au     10.483882      7.405680      9.662932
  Au      8.371443      8.641750     11.012868
  Au      7.077533      6.226996      6.778247
  Au      6.536126      9.086701      6.325646
  Au      4.532929      7.271050      6.823544
  Au      8.951972      7.904599      5.500304
  Au      8.955854     10.435474      6.723287
  Au      5.385443      5.568226      8.914656
  Au      9.794791      6.013747      7.409254
  Fe      8.363042      8.207156      8.171254
16
Coordinates from ORCA-job pbe E -3300.910997940967
  Au      3.337331      7.443009      9.397561
  Au      7.986957      6.013561      9.623288
  Au      4.608343      9.698901      8.276136
  Au      7.148407     10.447296      8.935462
  Au      9.963123     10.121623      9.249142
  Au      5.919231      8.044801     10.135028
  Au     10.485617      7.405538      9.662126
  Au      8.373249      8.640487     11.011791
  Au      7.076889      6.228372      6.779335
  Au      6.535198      9.085250      6.326238
  Au      4.531651      7.271102      6.823789
  Au      8.953960      7.905381      5.503150
  Au      8.955448     10.436666      6.723718
  Au      5.384577      5.566276      8.915743
  Au      9.793104      6.010971      7.410534
  Fe      8.364873      8.207798      8.170349
