17
E=  -1817.81671537;c=0;m=3
Au      8.498493531458459      8.286486239218791      9.523933342570791
Au      5.776609785935440      7.598225429896220      9.722112860096439
Au      6.383409960537990      9.808912988875910      8.081247367368141
Au      9.098864615225210      9.730081810830940      7.176423153527990
Au      7.243716636910360     11.472807648439851      6.050018922072900
Au     10.027716799271269      7.023437329109170      7.526919053756810
Au      4.317956223801030      7.962202125070920      7.297174773591090
Au      5.491900319879040      5.421610526853560      7.849338375959450
Au      8.087134540095340      5.118248842546110      6.800885642997500
Au      8.756622983414870      7.130226309703540      4.940558808753570
Au      6.512843202070590     11.061784738377829      3.368503339796650
Au     11.063897715434310      8.667309038648670      5.455297339359130
Au      6.821513256655010      8.270648067041581      3.296322841106410
Au      8.944405721398461      9.975725499171720      4.258960908045960
Au      5.969226586540090      6.632700967412590      5.349967766398710
Au      5.170302581579530      9.584280957193190      5.291806696745720
Fe      7.231661579792970      7.386268631609400      7.526331437852830
