17
E=  -1788.70375629;c=0;m=3
Au      7.123934187445240     10.879500700129510      9.811643017647519
Au      7.411761624912610      8.978768316244020      5.603396601135140
Au      7.944025422125910     11.304598179268289      7.126446975406050
Au     10.034484290473239      9.472194634255089      6.546622842248280
Au      9.036936354514721      6.827968166209390      6.711873049596430
Au     10.506364404611761      7.914204057022000      8.873990220055100
Au      9.872067249418309     10.674361433261041      9.117179450679430
Au      8.707165581768139      8.784317212182110     10.891742184658719
Au      5.487241644119500      5.587954097594900      9.382550195892451
Au      8.195203552024759      6.391740098474370      9.468030595765070
Au      7.271590564579740      4.725163585956230      7.381179076939070
Au      6.803696103057510      6.270357300298880      5.072430705279010
Au      4.729775352248980      8.088276939668161      5.647387567435100
Au      5.565176450105780      9.871463111659020      7.674550930574410
Au      3.916168417994730      7.666640395314060      8.311234937431090
Au      6.049431287380270      8.272593916319080     10.062970666409310
Cr      6.376248403218800      7.198006676143810      7.498945962847860
