11
E=  -1165.08579102;c=0;m=3
Au      7.382215581331250      6.637510216512380      6.458366067202440
Au      8.192071187832980      9.114773569234931      6.921319882590570
Au      6.022657196888360      4.251646272133420      6.537075567834960
Au      6.346528517404780      5.526741186844130      8.948760078393530
Au      4.503697615468520      6.509692336918960      6.912487634676560
Au      5.915966647179280     10.630126242720220      7.656574337171080
Au      6.562894847771010      7.367690668170280     10.838592234653110
Au      7.729558615847300      9.662938492142739      9.660355243128960
Au      4.896958737334700      9.537088380039959     10.107361479850880
Au      3.664261337073080      8.913786847373821      7.635687985116550
Fe      6.129123085868640      8.081985977909190      8.289744779381490
