11
Coordinates from ORCA-job pbe E -2621.726649410092
  Au      7.382216      6.637510      6.458366
  Au      8.192071      9.114774      6.921320
  Au      6.022657      4.251646      6.537076
  Au      6.346529      5.526741      8.948760
  Au      4.503698      6.509692      6.912488
  Au      5.915967     10.630126      7.656574
  Au      6.562895      7.367691     10.838592
  Au      7.729559      9.662938      9.660355
  Au      4.896959      9.537088     10.107361
  Au      3.664261      8.913787      7.635688
  Fe      6.129123      8.081986      8.289745
11
Coordinates from ORCA-job pbe E -2621.727039198503
  Au      7.396678      6.629874      6.454119
  Au      8.173212      9.120163      6.921553
  Au      6.035796      4.227571      6.533009
  Au      6.357275      5.515054      8.954282
  Au      4.484320      6.502039      6.900951
  Au      5.929142     10.636310      7.678848
  Au      6.547641      7.376405     10.829644
  Au      7.720581      9.666542      9.658513
  Au      4.917920      9.551715     10.109110
  Au      3.659142      8.928143      7.639675
  Fe      6.124226      8.080162      8.286620
11
Coordinates from ORCA-job pbe E -2621.727312298421
  Au      7.404560      6.609227      6.458793
  Au      8.151461      9.120182      6.914793
  Au      6.041190      4.251314      6.546595
  Au      6.371892      5.501431      8.942959
  Au      4.478344      6.490198      6.893715
  Au      5.933423     10.646348      7.698617
  Au      6.527729      7.378142     10.819236
  Au      7.724277      9.667476      9.660772
  Au      4.929394      9.569727     10.109209
  Au      3.663687      8.927245      7.640372
  Fe      6.119977      8.072691      8.281264
11
Coordinates from ORCA-job pbe E -2621.727595882062
  Au      7.421019      6.603601      6.464203
  Au      8.135312      9.114512      6.905397
  Au      6.028827      4.247871      6.539201
  Au      6.389124      5.496561      8.946842
  Au      4.473161      6.490756      6.892971
  Au      5.925628     10.663781      7.714627
  Au      6.511907      7.373109     10.810601
  Au      7.735736      9.671859      9.667486
  Au      4.927749      9.593987     10.108543
  Au      3.678973      8.911894      7.638823
  Fe      6.118497      8.066049      8.277631
11
Coordinates from ORCA-job pbe E -2621.727697682793
  Au      7.425660      6.598686      6.467819
  Au      8.125261      9.120194      6.905257
  Au      6.025522      4.238716      6.533709
  Au      6.396392      5.494623      8.945154
  Au      4.477818      6.484819      6.892943
  Au      5.925978     10.674269      7.715847
  Au      6.502938      7.379671     10.808201
  Au      7.740307      9.663958      9.665787
  Au      4.925567      9.601189     10.114990
  Au      3.684687      8.915617      7.641927
  Fe      6.115803      8.062238      8.274692
11
Coordinates from ORCA-job pbe E -2621.727769782222
  Au      7.428785      6.595248      6.472394
  Au      8.110290      9.123524      6.900882
  Au      6.031590      4.231880      6.533881
  Au      6.402936      5.494334      8.942277
  Au      4.482692      6.484341      6.895769
  Au      5.928667     10.684880      7.726160
  Au      6.488624      7.383277     10.803445
  Au      7.738633      9.649796      9.658815
  Au      4.930389      9.613052     10.118653
  Au      3.693028      8.917762      7.644734
  Fe      6.110300      8.055887      8.269317
11
Coordinates from ORCA-job pbe E -2621.727793137689
  Au      7.428614      6.595620      6.472026
  Au      8.107764      9.126434      6.894429
  Au      6.037877      4.230503      6.536307
  Au      6.402945      5.494698      8.942847
  Au      4.485826      6.483362      6.897090
  Au      5.928436     10.688932      7.730728
  Au      6.482405      7.381373     10.806577
  Au      7.739574      9.640277      9.655013
  Au      4.931450      9.617993     10.118724
  Au      3.693642      8.921697      7.645854
  Fe      6.107401      8.053092      8.266730
11
Coordinates from ORCA-job pbe E -2621.727809196853
  Au      7.429795      6.597485      6.471357
  Au      8.105733      9.131338      6.886856
  Au      6.042822      4.232240      6.539480
  Au      6.403228      5.494826      8.944782
  Au      4.486640      6.485126      6.898847
  Au      5.929986     10.690473      7.733010
  Au      6.475619      7.380670     10.812333
  Au      7.740887      9.629557      9.651031
  Au      4.933218      9.619146     10.119258
  Au      3.692915      8.922478      7.644788
  Fe      6.105091      8.050641      8.264585
11
Coordinates from ORCA-job pbe E -2621.727819566165
  Au      7.432087      6.601425      6.470515
  Au      8.103561      9.135499      6.879847
  Au      6.046081      4.236752      6.543246
  Au      6.403800      5.496770      8.949741
  Au      4.486225      6.484504      6.898769
  Au      5.930612     10.689705      7.735411
  Au      6.469315      7.379058     10.816612
  Au      7.743990      9.618664      9.647534
  Au      4.934709      9.618889     10.117617
  Au      3.691905      8.923956      7.643993
  Fe      6.103649      8.048757      8.263040
11
Coordinates from ORCA-job pbe E -2621.727823912991
  Au      7.434053      6.602349      6.470881
  Au      8.102127      9.138655      6.877124
  Au      6.046545      4.238359      6.544330
  Au      6.405219      5.496692      8.951066
  Au      4.483596      6.485274      6.898297
  Au      5.930420     10.688796      7.735898
  Au      6.466205      7.380209     10.819342
  Au      7.747145      9.613836      9.646736
  Au      4.934865      9.618049     10.116629
  Au      3.692056      8.923375      7.643143
  Fe      6.103702      8.048386      8.262878
11
Coordinates from ORCA-job pbe E -2621.727825117613
  Au      7.434561      6.602640      6.471896
  Au      8.101300      9.139070      6.876856
  Au      6.046342      4.238871      6.544525
  Au      6.406096      5.497567      8.951324
  Au      4.482509      6.485011      6.897768
  Au      5.930557     10.688833      7.735827
  Au      6.465513      7.380443     10.819109
  Au      7.748461      9.612338      9.646551
  Au      4.934744      9.617670     10.116784
  Au      3.691781      8.922911      7.642558
  Fe      6.104069      8.048625      8.263127
