%pal nprocs 1 end 

!PBE def2-TZVP OPT UNO
!SLOWCONV

*xyz 0 3 
  Au  7.32095236700904      4.74375690390639      7.30066676250354
  Au  8.11127963304911      8.58990206717357      5.18222600801393
  Au  10.13274239829592      8.40602252949014      7.15743586179269
  Au  9.19310730829376      6.15240135388430      5.71355484839328
  Au  9.13090367948416      8.51705744101299      9.74672105324118
  Au  7.82891876633592      9.95088871936520      7.64429059369286
  Au  9.54915333628877      5.99000171153106      8.50482462929962
  Au  6.99019836475216      7.91703148014089     11.30229456582065
  Au  6.41631363613297      6.34285547678938      5.13614778186536
  Au  5.57790109024693      8.72215526954870      6.44761229027876
  Au  4.73769067136724      6.69124395621604     10.04939486129185
  Au  4.83755839721423      6.13597338646424      7.40154161228039
  Au  7.26305748350711      5.48284947788241      9.96038983254614
  Au  5.68121184846695      9.18208155643607      9.17506224601541
  Fe  7.23573585955546      7.34029957015840      8.08204623296420
*
