17
Coordinates from ORCA-job pbe E -3217.490870011999
  Au      6.582139      8.358848      8.678782
  Au      6.129273      9.582034      5.939073
  Au      8.658100      4.443869     10.408804
  Au     10.474240      6.715002      6.644143
  Au      8.045018      5.870421      8.083173
  Au      8.233417      5.792070      5.227419
  Au      5.871364      6.789883      6.462257
  Au      9.383993      8.207399      4.237523
  Au      8.186746      9.845269     10.413399
  Au      8.177635      7.118854     10.731561
  Au     10.628882      6.083795      9.449906
  Au     10.659864      8.559973     10.912164
  Au     10.422942      9.606601      6.374154
  Au     10.535862     10.657837      8.979421
  Au      8.090119     10.592194      7.593491
  Au     11.982362      8.241739      8.428749
  Cr      8.129028      8.116105      6.429789
17
Coordinates from ORCA-job pbe E -3217.495033996633
  Au      6.591275      8.358904      8.685501
  Au      6.115269      9.607811      5.968154
  Au      8.653615      4.467848     10.380938
  Au     10.476023      6.717971      6.655224
  Au      8.045795      5.875768      8.080168
  Au      8.254542      5.771518      5.265989
  Au      5.879273      6.774475      6.508890
  Au      9.425427      8.209968      4.237873
  Au      8.187224      9.825950     10.386030
  Au      8.177154      7.125951     10.699438
  Au     10.609951      6.098534      9.427599
  Au     10.637416      8.551258     10.876566
  Au     10.430177      9.608149      6.385057
  Au     10.519261     10.637086      8.964445
  Au      8.096213     10.594244      7.605556
  Au     11.951699      8.235714      8.418044
  Cr      8.140669      8.120740      6.448339
17
Coordinates from ORCA-job pbe E -3217.497903064715
  Au      6.575112      8.360579      8.696386
  Au      6.083119      9.654754      6.027628
  Au      8.646921      4.448878     10.383189
  Au     10.491166      6.705795      6.650708
  Au      8.036748      5.845471      8.086756
  Au      8.272962      5.749470      5.285065
  Au      5.873168      6.761775      6.542476
  Au      9.508239      8.208600      4.237781
  Au      8.177288      9.824811     10.358210
  Au      8.168171      7.122885     10.680996
  Au     10.598033      6.096532      9.410892
  Au     10.623406      8.552109     10.849416
  Au     10.448348      9.625402      6.373849
  Au     10.505861     10.637201      8.938452
  Au      8.091362     10.621398      7.607502
  Au     11.935550      8.237457      8.394109
  Cr      8.155531      8.128776      6.470395
17
Coordinates from ORCA-job pbe E -3217.499565625205
  Au      6.556032      8.361006      8.704052
  Au      6.051664      9.671633      6.102834
  Au      8.652219      4.459304     10.384122
  Au     10.503604      6.692079      6.642324
  Au      8.030519      5.816267      8.097395
  Au      8.277085      5.752760      5.289996
  Au      5.876700      6.764267      6.547885
  Au      9.584078      8.179817      4.256724
  Au      8.174973      9.818113     10.333605
  Au      8.169264      7.118057     10.656413
  Au     10.577000      6.101249      9.398069
  Au     10.608337      8.547527     10.824343
  Au     10.461321      9.646423      6.359125
  Au     10.497418     10.631631      8.925816
  Au      8.087782     10.649678      7.601484
  Au     11.915217      8.238646      8.379434
  Cr      8.167771      8.133433      6.490189
17
Coordinates from ORCA-job pbe E -3217.500800395004
  Au      6.537292      8.367961      8.714967
  Au      6.009792      9.671974      6.183713
  Au      8.647613      4.436219     10.393319
  Au     10.522205      6.682626      6.634258
  Au      8.010062      5.789235      8.079218
  Au      8.275167      5.763261      5.296822
  Au      5.888559      6.768087      6.548105
  Au      9.658067      8.131049      4.276677
  Au      8.171368      9.819648     10.311217
  Au      8.161962      7.123284     10.637804
  Au     10.569345      6.106883      9.380012
  Au     10.601873      8.550589     10.809846
  Au     10.473223      9.673635      6.348336
  Au     10.492599     10.633617      8.914419
  Au      8.091591     10.681048      7.595443
  Au     11.901720      8.244390      8.362722
  Cr      8.178547      8.138384      6.506930
17
Coordinates from ORCA-job pbe E -3217.501636974524
  Au      6.520680      8.369555      8.727508
  Au      5.968081      9.657430      6.255442
  Au      8.654613      4.449120     10.396432
  Au     10.538190      6.670191      6.629789
  Au      7.998725      5.764897      8.076086
  Au      8.264758      5.779796      5.277262
  Au      5.888654      6.779813      6.523581
  Au      9.716297      8.074456      4.295274
  Au      8.170236      9.823562     10.301666
  Au      8.160235      7.117137     10.621089
  Au     10.554216      6.106541      9.371074
  Au     10.604881      8.549182     10.817484
  Au     10.476171      9.700733      6.333804
  Au     10.496609     10.641125      8.915572
  Au      8.096483     10.708253      7.580906
  Au     11.897896      8.249289      8.354981
  Cr      8.184259      8.140812      6.515858
17
Coordinates from ORCA-job pbe E -3217.501998466844
  Au      6.518476      8.363252      8.736691
  Au      5.954316      9.650985      6.277267
  Au      8.666904      4.456456     10.414011
  Au     10.541191      6.661904      6.635489
  Au      7.990983      5.758705      8.065663
  Au      8.260655      5.793163      5.262456
  Au      5.887543      6.792387      6.506028
  Au      9.733417      8.054546      4.300935
  Au      8.178957      9.821589     10.298322
  Au      8.158688      7.122238     10.611382
  Au     10.550712      6.112807      9.362857
  Au     10.609377      8.548691     10.826103
  Au     10.466912      9.705375      6.328010
  Au     10.498494     10.633976      8.923884
  Au      8.097912     10.708165      7.569507
  Au     11.890894      8.253715      8.359348
  Cr      8.185553      8.143934      6.515856
17
Coordinates from ORCA-job pbe E -3217.502239190147
  Au      6.518471      8.356785      8.739295
  Au      5.945114      9.651776      6.283295
  Au      8.678028      4.466720     10.426608
  Au     10.539013      6.656709      6.638792
  Au      7.984621      5.757230      8.053964
  Au      8.262108      5.798027      5.263583
  Au      5.891098      6.798021      6.505757
  Au      9.741915      8.047342      4.297736
  Au      8.185264      9.825053     10.296192
  Au      8.151740      7.119769     10.600301
  Au     10.544095      6.110686      9.352507
  Au     10.618278      8.542869     10.848056
  Au     10.455414      9.706764      6.325818
  Au     10.499362     10.631827      8.927600
  Au      8.101231     10.702894      7.560626
  Au     11.889110      8.260173      8.361137
  Cr      8.186123      8.149245      6.512543
17
Coordinates from ORCA-job pbe E -3217.502361555143
  Au      6.518192      8.357271      8.736124
  Au      5.942677      9.656166      6.277290
  Au      8.689684      4.470735     10.444914
  Au     10.536793      6.658099      6.636754
  Au      7.984871      5.753602      8.057416
  Au      8.261156      5.799051      5.259210
  Au      5.889233      6.800555      6.501911
  Au      9.741549      8.050278      4.291143
  Au      8.192153      9.822331     10.294321
  Au      8.149409      7.123229     10.595588
  Au     10.543835      6.113851      9.347302
  Au     10.621380      8.534921     10.860237
  Au     10.450920      9.703077      6.327467
  Au     10.497924     10.624216      8.931017
  Au      8.101551     10.696759      7.560275
  Au     11.883616      8.262734      8.365129
  Cr      8.186042      8.155014      6.507710
17
Coordinates from ORCA-job pbe E -3217.502463350000
  Au      6.517378      8.366516      8.729761
  Au      5.938395      9.659729      6.270435
  Au      8.697333      4.474774     10.455224
  Au     10.537146      6.666337      6.629880
  Au      7.986133      5.751431      8.062032
  Au      8.261479      5.794630      5.269102
  Au      5.893814      6.794994      6.509359
  Au      9.740813      8.051214      4.283049
  Au      8.196208      9.817849     10.294624
  Au      8.143323      7.125377     10.586474
  Au     10.541184      6.115398      9.337039
  Au     10.622758      8.521719     10.873107
  Au     10.453472      9.700270      6.324210
  Au     10.498679     10.619539      8.936121
  Au      8.096078     10.696873      7.561637
  Au     11.879826      8.262386      8.368666
  Cr      8.186966      8.162855      6.503088
17
Coordinates from ORCA-job pbe E -3217.502533089383
  Au      6.514182      8.378268      8.721993
  Au      5.938300      9.658789      6.262580
  Au      8.702293      4.475102     10.463215
  Au     10.539203      6.675015      6.620387
  Au      7.987751      5.746120      8.069822
  Au      8.261504      5.792457      5.276388
  Au      5.897856      6.791389      6.514805
  Au      9.735016      8.051584      4.278666
  Au      8.201487      9.817590     10.294384
  Au      8.136657      7.124096     10.579988
  Au     10.538893      6.113353      9.328942
  Au     10.623011      8.514009     10.879477
  Au     10.458669      9.697352      6.328094
  Au     10.495090     10.615531      8.933344
  Au      8.095344     10.696487      7.569765
  Au     11.877550      8.265933      8.371489
  Cr      8.188178      8.168817      6.500470
17
Coordinates from ORCA-job pbe E -3217.502588241725
  Au      6.513131      8.388473      8.722570
  Au      5.940398      9.654428      6.253498
  Au      8.702158      4.474666     10.462822
  Au     10.545889      6.681068      6.617183
  Au      7.988796      5.743757      8.073584
  Au      8.262185      5.791407      5.283059
  Au      5.901902      6.788840      6.520548
  Au      9.724938      8.051367      4.275525
  Au      8.202619      9.816070     10.299730
  Au      8.130110      7.122734     10.576091
  Au     10.538083      6.110295      9.322922
  Au     10.621628      8.509589     10.880685
  Au     10.463535      9.696178      6.325715
  Au     10.493780     10.616301      8.930984
  Au      8.091463     10.699090      7.572601
  Au     11.880255      8.264808      8.375664
  Cr      8.190114      8.172818      6.500629
17
Coordinates from ORCA-job pbe E -3217.502666295236
  Au      6.507528      8.402082      8.724163
  Au      5.944156      9.646903      6.246083
  Au      8.702358      4.473552     10.462721
  Au     10.556607      6.686804      6.611304
  Au      7.987199      5.737433      8.075043
  Au      8.265955      5.792639      5.292120
  Au      5.907549      6.788771      6.528790
  Au      9.713914      8.048768      4.276143
  Au      8.206052      9.815766     10.308601
  Au      8.120733      7.119091     10.570500
  Au     10.535991      6.105071      9.314522
  Au     10.617699      8.506163     10.875048
  Au     10.469330      9.695607      6.321169
  Au     10.490622     10.616294      8.925023
  Au      8.085778     10.703949      7.574553
  Au     11.884516      8.264612      8.382658
  Cr      8.194997      8.178384      6.505369
17
Coordinates from ORCA-job pbe E -3217.502741054621
  Au      6.503485      8.411369      8.730709
  Au      5.947591      9.639147      6.242791
  Au      8.703720      4.473469     10.466110
  Au     10.568370      6.688282      6.608047
  Au      7.984482      5.729391      8.073687
  Au      8.269904      5.797830      5.296431
  Au      5.912422      6.793708      6.534154
  Au      9.704707      8.045062      4.277632
  Au      8.205740      9.815763     10.315130
  Au      8.111284      7.116257     10.564541
  Au     10.533635      6.099807      9.307222
  Au     10.611896      8.504713     10.866276
  Au     10.473040      9.696179      6.316779
  Au     10.485710     10.615623      8.917396
  Au      8.082274     10.707549      7.574982
  Au     11.889889      8.263755      8.386709
  Cr      8.202836      8.183987      6.515213
17
Coordinates from ORCA-job pbe E -3217.502828982294
  Au      6.495216      8.415264      8.735796
  Au      5.947162      9.633065      6.240742
  Au      8.708232      4.474267     10.471917
  Au     10.576683      6.685874      6.608332
  Au      7.980134      5.721286      8.070694
  Au      8.273527      5.805127      5.298690
  Au      5.916433      6.800832      6.534774
  Au      9.702243      8.040723      4.280573
  Au      8.204032      9.818855     10.321361
  Au      8.105855      7.112910     10.560935
  Au     10.531801      6.096718      9.301153
  Au     10.606912      8.503791     10.853135
  Au     10.474497      9.697852      6.313206
  Au     10.482817     10.612374      8.912287
  Au      8.078642     10.712353      7.573744
  Au     11.894396      8.260712      8.386324
  Cr      8.212402      8.189887      6.530146
17
Coordinates from ORCA-job pbe E -3217.502942695887
  Au      6.492091      8.408352      8.744314
  Au      5.945023      9.631297      6.251492
  Au      8.711552      4.477551     10.482293
  Au     10.580135      6.674408      6.605117
  Au      7.977088      5.712778      8.065670
  Au      8.271964      5.816594      5.292913
  Au      5.921055      6.810505      6.530034
  Au      9.707468      8.037205      4.282486
  Au      8.193380      9.821160     10.320161
  Au      8.103644      7.114147     10.558553
  Au     10.529651      6.095100      9.302217
  Au     10.597326      8.507340     10.837427
  Au     10.475165      9.701115      6.308492
  Au     10.478767     10.606908      8.910139
  Au      8.077755     10.713985      7.570017
  Au     11.902238      8.259027      8.379951
  Cr      8.226684      8.194418      6.552532
17
Coordinates from ORCA-job pbe E -3217.503045791609
  Au      6.485440      8.398757      8.742498
  Au      5.940148      9.633073      6.253915
  Au      8.717786      4.480209     10.489006
  Au     10.574323      6.665983      6.610068
  Au      7.976639      5.712083      8.066591
  Au      8.267294      5.824332      5.289812
  Au      5.924867      6.813915      6.520643
  Au      9.716741      8.036672      4.284915
  Au      8.183390      9.827012     10.317530
  Au      8.108194      7.115519     10.560007
  Au     10.530589      6.099041      9.301532
  Au     10.595435      8.506506     10.828029
  Au     10.473802      9.702733      6.309778
  Au     10.478699     10.599283      8.912340
  Au      8.077021     10.715761      7.569147
  Au     11.903933      8.252545      8.366702
  Cr      8.236685      8.198466      6.571293
17
Coordinates from ORCA-job pbe E -3217.503103572243
  Au      6.484933      8.393041      8.736428
  Au      5.937023      9.631779      6.252361
  Au      8.719066      4.483692     10.491717
  Au     10.566719      6.662267      6.604206
  Au      7.981070      5.715924      8.070355
  Au      8.261298      5.826865      5.289683
  Au      5.929609      6.810917      6.517866
  Au      9.713799      8.034935      4.279571
  Au      8.176457      9.827636     10.314605
  Au      8.110294      7.120035     10.559772
  Au     10.531519      6.102250      9.302951
  Au     10.593080      8.503720     10.830228
  Au     10.478894      9.704271      6.311020
  Au     10.479089     10.593021      8.918694
  Au      8.077644     10.717426      7.572435
  Au     11.906687      8.251125      8.361525
  Cr      8.243804      8.202986      6.580390
17
Coordinates from ORCA-job pbe E -3217.503081204277
  Au      6.487116      8.379633      8.733840
  Au      5.945134      9.646561      6.255227
  Au      8.718039      4.485308     10.489487
  Au     10.556240      6.654666      6.606224
  Au      7.985494      5.721922      8.075374
  Au      8.250189      5.821420      5.282258
  Au      5.925234      6.801405      6.507118
  Au      9.720359      8.050738      4.282140
  Au      8.168540      9.828322     10.306031
  Au      8.118916      7.125954     10.566736
  Au     10.536426      6.108025      9.311057
  Au     10.597221      8.507593     10.838210
  Au     10.478095      9.701528      6.310619
  Au     10.479297     10.589191      8.921880
  Au      8.077295     10.714092      7.571816
  Au     11.904711      8.250008      8.351805
  Cr      8.242679      8.195525      6.583987
17
Coordinates from ORCA-job pbe E -3217.503156012408
  Au      6.484203      8.386661      8.734814
  Au      5.942762      9.632105      6.252504
  Au      8.716836      4.485120     10.485776
  Au     10.562064      6.658124      6.604634
  Au      7.984568      5.721311      8.074678
  Au      8.254249      5.826005      5.286723
  Au      5.928952      6.806354      6.510556
  Au      9.711999      8.039517      4.284333
  Au      8.169955      9.828298     10.310050
  Au      8.113678      7.124497     10.563213
  Au     10.535700      6.105801      9.305220
  Au     10.596544      8.504721     10.837385
  Au     10.482136      9.703988      6.309204
  Au     10.477670     10.588454      8.918568
  Au      8.076229     10.719696      7.573561
  Au     11.905980      8.249138      8.354408
  Cr      8.247459      8.202103      6.588183
17
Coordinates from ORCA-job pbe E -3217.503180745481
  Au      6.482445      8.385907      8.735856
  Au      5.944919      9.628293      6.250080
  Au      8.714655      4.485094     10.481225
  Au     10.564167      6.656519      6.604736
  Au      7.983727      5.722699      8.072191
  Au      8.255291      5.826018      5.287381
  Au      5.928641      6.807215      6.512201
  Au      9.706110      8.037910      4.284584
  Au      8.171297      9.827919     10.310530
  Au      8.114787      7.124195     10.564791
  Au     10.536848      6.105742      9.307135
  Au     10.596871      8.505310     10.837879
  Au     10.483766      9.706918      6.307476
  Au     10.476475     10.586078      8.918149
  Au      8.075835     10.723200      7.571837
  Au     11.905616      8.249751      8.356540
  Cr      8.249535      8.203122      6.591219
17
Coordinates from ORCA-job pbe E -3217.503213017691
  Au      6.479912      8.382571      8.738103
  Au      5.950177      9.622679      6.247957
  Au      8.710667      4.484533     10.473844
  Au     10.565013      6.652417      6.604811
  Au      7.983150      5.725836      8.070859
  Au      8.255291      5.826380      5.288600
  Au      5.928379      6.807568      6.510369
  Au      9.699531      8.039172      4.289412
  Au      8.171602      9.826988     10.307119
  Au      8.117593      7.125353     10.567815
  Au     10.539118      6.106359      9.310205
  Au     10.599677      8.506011     10.842963
  Au     10.485717      9.711141      6.302696
  Au     10.472939     10.580507      8.915408
  Au      8.075087     10.729314      7.568901
  Au     11.902416      8.250096      8.355164
  Cr      8.254713      8.204965      6.599583
17
Coordinates from ORCA-job pbe E -3217.503231037839
  Au      6.478028      8.376762      8.739000
  Au      5.957352      9.624673      6.247140
  Au      8.707624      4.482691     10.469238
  Au     10.565084      6.647797      6.606219
  Au      7.983112      5.727510      8.070784
  Au      8.253557      5.826090      5.287207
  Au      5.927761      6.806625      6.509679
  Au      9.694511      8.042801      4.291629
  Au      8.171027      9.825360     10.301068
  Au      8.121715      7.125722     10.571300
  Au     10.541234      6.107368      9.315114
  Au     10.602639      8.507730     10.848330
  Au     10.486769      9.715295      6.299637
  Au     10.470257     10.576695      8.913481
  Au      8.074154     10.733220      7.564294
  Au     11.897789      8.250908      8.353159
  Cr      8.258370      8.204644      6.606530
17
Coordinates from ORCA-job pbe E -3217.503241407647
  Au      6.476242      8.372302      8.740699
  Au      5.957539      9.622336      6.247002
  Au      8.706496      4.481523     10.469107
  Au     10.563131      6.642825      6.606115
  Au      7.982417      5.727176      8.071723
  Au      8.252373      5.828323      5.287558
  Au      5.929078      6.807912      6.505027
  Au      9.695245      8.045589      4.294596
  Au      8.169927      9.824667     10.296255
  Au      8.124663      7.126245     10.572980
  Au     10.541114      6.107518      9.317426
  Au     10.604204      8.508922     10.849486
  Au     10.487233      9.718155      6.296276
  Au     10.469139     10.574934      8.912794
  Au      8.074369     10.737203      7.562897
  Au     11.894493      8.250000      8.349004
  Cr      8.263321      8.206260      6.614863
17
Coordinates from ORCA-job pbe E -3217.503252191522
  Au      6.474201      8.368623      8.741231
  Au      5.958469      9.623286      6.248830
  Au      8.706399      4.479688     10.470738
  Au     10.562490      6.639336      6.606202
  Au      7.981788      5.724641      8.072818
  Au      8.251318      5.831257      5.287077
  Au      5.931212      6.809330      6.503357
  Au      9.695509      8.045202      4.295582
  Au      8.168673      9.823158     10.291447
  Au      8.125953      7.125376     10.572877
  Au     10.540002      6.107260      9.318256
  Au     10.604803      8.510437     10.849162
  Au     10.488507      9.720510      6.295229
  Au     10.469345     10.576564      8.911893
  Au      8.073752     10.739621      7.561259
  Au     11.890911      8.249783      8.346121
  Cr      8.267653      8.207819      6.621729
17
Coordinates from ORCA-job pbe E -3217.503270775821
  Au      6.470680      8.363352      8.742707
  Au      5.961845      9.627148      6.247698
  Au      8.705615      4.474836     10.474103
  Au     10.562133      6.633710      6.605783
  Au      7.979223      5.717503      8.074653
  Au      8.251739      5.832725      5.288150
  Au      5.933125      6.810899      6.503068
  Au      9.695219      8.050626      4.296668
  Au      8.170812      9.818817     10.282314
  Au      8.128236      7.122109     10.572609
  Au     10.536488      6.105509      9.319802
  Au     10.606311      8.514665     10.847212
  Au     10.489562      9.723134      6.293996
  Au     10.471992     10.586174      8.910558
  Au      8.073826     10.742619      7.559893
  Au     11.881614      8.250370      8.343720
  Cr      8.272566      8.207694      6.630875
17
Coordinates from ORCA-job pbe E -3217.503286263170
  Au      6.467127      8.360679      8.743721
  Au      5.964767      9.624867      6.247069
  Au      8.705015      4.472439     10.475165
  Au     10.563589      6.630215      6.604645
  Au      7.977010      5.711907      8.074942
  Au      8.250495      5.835624      5.288579
  Au      5.936046      6.812661      6.502113
  Au      9.691010      8.049419      4.298598
  Au      8.173570      9.815537     10.275978
  Au      8.128146      7.119839     10.570678
  Au     10.533508      6.104499      9.318651
  Au     10.606594      8.517341     10.845101
  Au     10.492318      9.724829      6.294561
  Au     10.475419     10.595835      8.909835
  Au      8.073761     10.745175      7.560527
  Au     11.874387      8.251878      8.343444
  Cr      8.278224      8.209144      6.640203
17
Coordinates from ORCA-job pbe E -3217.503304162428
  Au      6.464430      8.359709      8.744785
  Au      5.972357      9.622706      6.242014
  Au      8.702978      4.469922     10.473544
  Au     10.565140      6.628120      6.603020
  Au      7.974399      5.707092      8.074535
  Au      8.251023      5.833800      5.289519
  Au      5.935460      6.811804      6.502481
  Au      9.682915      8.054167      4.301529
  Au      8.179280      9.812503     10.270251
  Au      8.128015      7.117968     10.569906
  Au     10.531001      6.103608      9.317656
  Au     10.607191      8.519888     10.843553
  Au     10.493546      9.724530      6.297106
  Au     10.481424     10.609734      8.909801
  Au      8.074947     10.745188      7.562127
  Au     11.866249      8.254935      8.345029
  Cr      8.280630      8.206217      6.646953
17
Coordinates from ORCA-job pbe E -3217.503319220750
  Au      6.462867      8.359607      8.744771
  Au      5.980980      9.617954      6.236542
  Au      8.700787      4.469454     10.469822
  Au     10.566764      6.627127      6.601081
  Au      7.972564      5.705163      8.072896
  Au      8.250323      5.830768      5.289168
  Au      5.933630      6.809212      6.502899
  Au      9.672643      8.058193      4.305189
  Au      8.184681      9.811999     10.265526
  Au      8.127461      7.117983     10.569420
  Au     10.530026      6.103975      9.316380
  Au     10.606689      8.519799     10.843963
  Au     10.493378      9.724247      6.299934
  Au     10.487335     10.621829      8.912331
  Au      8.078178     10.744237      7.563971
  Au     11.860456      8.258577      8.346508
  Cr      8.282222      8.201764      6.653409
17
Coordinates from ORCA-job pbe E -3217.503327164799
  Au      6.462230      8.359957      8.744748
  Au      5.986088      9.614885      6.233912
  Au      8.699970      4.470261     10.467719
  Au     10.566808      6.627134      6.599852
  Au      7.971775      5.705252      8.071961
  Au      8.250361      5.828477      5.288797
  Au      5.931627      6.806744      6.502188
  Au      9.667179      8.060812      4.307784
  Au      8.186580      9.813100     10.263350
  Au      8.126883      7.119070     10.569680
  Au     10.530077      6.104836      9.315377
  Au     10.606093      8.517425     10.844792
  Au     10.491904      9.725096      6.302228
  Au     10.491470     10.626137      8.914921
  Au      8.081102     10.743423      7.563345
  Au     11.858332      8.261395      8.345891
  Cr      8.282505      8.197886      6.657262
17
Coordinates from ORCA-job pbe E -3217.503332949963
  Au      6.461687      8.360051      8.744011
  Au      5.989360      9.613162      6.233476
  Au      8.700428      4.471549     10.467736
  Au     10.567422      6.627010      6.598718
  Au      7.971606      5.704838      8.071645
  Au      8.249467      5.827649      5.287989
  Au      5.930660      6.805246      6.502373
  Au      9.664413      8.061771      4.309624
  Au      8.186763      9.814868     10.260983
  Au      8.125723      7.120192     10.569257
  Au     10.530504      6.105517      9.314068
  Au     10.604553      8.514226     10.845406
  Au     10.489902      9.727058      6.302687
  Au     10.493104     10.627360      8.918275
  Au      8.084458     10.743446      7.562134
  Au     11.857760      8.263041      8.344400
  Cr      8.283174      8.194906      6.661025
17
Coordinates from ORCA-job pbe E -3217.503338172037
  Au      6.460288      8.360646      8.743918
  Au      5.991324      9.612416      6.233277
  Au      8.701968      4.472916     10.469815
  Au     10.567814      6.626985      6.597303
  Au      7.971202      5.703393      8.072370
  Au      8.249491      5.827698      5.288491
  Au      5.930629      6.804329      6.502149
  Au      9.663453      8.062882      4.310945
  Au      8.185905      9.815945     10.259422
  Au      8.123841      7.120918     10.568699
  Au     10.530525      6.105500      9.312025
  Au     10.603248      8.510839     10.844877
  Au     10.488519      9.729605      6.303148
  Au     10.494442     10.626271      8.920539
  Au      8.086758     10.744408      7.560039
  Au     11.857487      8.264242      8.342106
  Cr      8.284090      8.192895      6.664688
17
Coordinates from ORCA-job pbe E -3217.503345221179
  Au      6.457748      8.362041      8.743474
  Au      5.994203      9.612411      6.232318
  Au      8.705056      4.474917     10.474431
  Au     10.569621      6.627058      6.594775
  Au      7.970854      5.700116      8.074093
  Au      8.249462      5.828548      5.289816
  Au      5.931626      6.804047      6.503410
  Au      9.661829      8.064531      4.312009
  Au      8.184168      9.816798     10.257570
  Au      8.120251      7.121258     10.567182
  Au     10.530586      6.104640      9.308445
  Au     10.600959      8.506753     10.843238
  Au     10.487600      9.732761      6.302767
  Au     10.494384     10.624014      8.923011
  Au      8.089005     10.746270      7.558075
  Au     11.857780      8.264529      8.339496
  Cr      8.285854      8.191200      6.669701
17
Coordinates from ORCA-job pbe E -3217.503353722092
  Au      6.453890      8.365253      8.743267
  Au      5.997915      9.612112      6.228944
  Au      8.709522      4.477719     10.480921
  Au     10.572670      6.627851      6.590892
  Au      7.970222      5.695641      8.076492
  Au      8.250172      5.829675      5.292692
  Au      5.933546      6.804085      6.505684
  Au      9.658481      8.067385      4.312716
  Au      8.181888      9.817162     10.257201
  Au      8.115019      7.121294     10.564849
  Au     10.530394      6.102936      9.303129
  Au     10.598114      8.502391     10.840202
  Au     10.487995      9.735298      6.302597
  Au     10.493687     10.620290      8.924523
  Au      8.090035     10.748583      7.556889
  Au     11.859174      8.263971      8.337268
  Cr      8.288260      8.190243      6.675544
17
Coordinates from ORCA-job pbe E -3217.503362912297
  Au      6.449562      8.370443      8.742986
  Au      6.003092      9.611557      6.222851
  Au      8.714362      4.480926     10.487528
  Au     10.577217      6.629807      6.586007
  Au      7.969581      5.690849      8.078749
  Au      8.251418      5.830239      5.296399
  Au      5.935600      6.804116      6.509391
  Au      9.652285      8.071319      4.312937
  Au      8.179623      9.817554     10.258740
  Au      8.109079      7.121196     10.561625
  Au     10.530067      6.101019      9.296739
  Au     10.594792      8.498601     10.836489
  Au     10.489462      9.735869      6.302713
  Au     10.492041     10.616201      8.925039
  Au      8.089696     10.750055      7.557485
  Au     11.862250      8.262508      8.336575
  Cr      8.290857      8.189632      6.681557
17
Coordinates from ORCA-job pbe E -3217.503372287255
  Au      6.445643      8.377654      8.742818
  Au      6.007648      9.609618      6.215213
  Au      8.718566      4.484204     10.492565
  Au     10.582577      6.633291      6.580803
  Au      7.968765      5.686923      8.080093
  Au      8.253244      5.830090      5.300403
  Au      5.937462      6.804059      6.513644
  Au      9.644644      8.074921      4.312582
  Au      8.177647      9.818610     10.263098
  Au      8.103575      7.121467     10.557524
  Au     10.529302      6.099702      9.289963
  Au     10.591640      8.495565     10.833120
  Au     10.491545      9.734063      6.303329
  Au     10.489948     10.611311      8.924396
  Au      8.087900     10.750161      7.559652
  Au     11.867580      8.260587      8.337669
  Cr      8.293297      8.189664      6.686936
17
Coordinates from ORCA-job pbe E -3217.503381528954
  Au      6.442437      8.385661      8.742755
  Au      6.013351      9.607930      6.206661
  Au      8.721148      4.486614     10.494940
  Au     10.588424      6.637809      6.575855
  Au      7.967555      5.683124      8.080483
  Au      8.255268      5.828602      5.303989
  Au      5.938356      6.803219      6.517991
  Au      9.635356      8.079219      4.312234
  Au      8.176526      9.820427     10.268234
  Au      8.099790      7.122185     10.552867
  Au     10.527916      6.099669      9.283793
  Au     10.589157      8.493760     10.830973
  Au     10.492966      9.730344      6.304423
  Au     10.488096     10.607461      8.923356
  Au      8.085705     10.748295      7.562399
  Au     11.873529      8.259211      8.340048
  Cr      8.295406      8.188357      6.692809
17
Coordinates from ORCA-job pbe E -3217.503389406812
  Au      6.440939      8.393680      8.742832
  Au      6.013600      9.604051      6.201120
  Au      8.721734      4.488194     10.494304
  Au     10.593418      6.642952      6.572249
  Au      7.965961      5.680679      8.079399
  Au      8.257608      5.828001      5.306649
  Au      5.939282      6.803630      6.521166
  Au      9.629271      8.078930      4.310826
  Au      8.175647      9.823267     10.275297
  Au      8.098418      7.123621     10.547499
  Au     10.525722      6.101244      9.278838
  Au     10.588245      8.492972     10.831154
  Au     10.494081      9.725968      6.304994
  Au     10.485834     10.602239      8.921772
  Au      8.082865     10.745938      7.565117
  Au     11.881029      8.257922      8.343461
  Cr      8.297329      8.188600      6.697131
17
Coordinates from ORCA-job pbe E -3217.503395101654
  Au      6.438938      8.399989      8.743107
  Au      6.019912      9.603835      6.194502
  Au      8.721304      4.488418     10.492955
  Au     10.598472      6.647193      6.568769
  Au      7.963127      5.675004      8.078911
  Au      8.259278      5.825439      5.308725
  Au      5.938769      6.801959      6.523967
  Au      9.621164      8.084081      4.311263
  Au      8.176231      9.825672     10.278013
  Au      8.098620      7.125050     10.542422
  Au     10.522762      6.103700      9.274848
  Au     10.588205      8.492921     10.832253
  Au     10.492923      9.722417      6.306100
  Au     10.485664     10.601237      8.921517
  Au      8.082208     10.742544      7.565852
  Au     11.884488      8.258880      8.345652
  Cr      8.298919      8.183551      6.704952
17
Coordinates from ORCA-job pbe E -3217.503399995627
  Au      6.439925      8.400018      8.743191
  Au      6.016367      9.603086      6.197309
  Au      8.719734      4.487507     10.490969
  Au     10.598257      6.647848      6.569586
  Au      7.961863      5.673612      8.077939
  Au      8.259712      5.826360      5.308214
  Au      5.938886      6.802944      6.523150
  Au      9.623630      8.080613      4.310444
  Au      8.176692      9.826420     10.278469
  Au      8.100831      7.125630     10.540960
  Au     10.521331      6.105415      9.275345
  Au     10.589996      8.493798     10.834788
  Au     10.492024      9.722812      6.305671
  Au     10.485535     10.600762      8.921817
  Au      8.082703     10.742319      7.564891
  Au     11.884748      8.259662      8.346116
  Cr      8.298751      8.183083      6.704950
17
Coordinates from ORCA-job pbe E -3217.503402157893
  Au      6.440029      8.400983      8.743030
  Au      6.015558      9.602983      6.198032
  Au      8.719604      4.487451     10.491429
  Au     10.598737      6.648762      6.569224
  Au      7.960305      5.670501      8.078119
  Au      8.260228      5.826756      5.308699
  Au      5.939182      6.803258      6.523381
  Au      9.624628      8.080611      4.310197
  Au      8.176901      9.826704     10.278304
  Au      8.101288      7.125991     10.539300
  Au     10.519991      6.106231      9.274480
  Au     10.591100      8.493605     10.836072
  Au     10.491000      9.723737      6.305692
  Au     10.485795     10.600458      8.922706
  Au      8.083878     10.742340      7.563632
  Au     11.884447      8.260328      8.345888
  Cr      8.298313      8.181191      6.705624
17
Coordinates from ORCA-job pbe E -3217.503402819866
  Au      6.439690      8.402611      8.742717
  Au      6.016457      9.603232      6.197072
  Au      8.720283      4.487923     10.492521
  Au     10.599760      6.650051      6.568332
  Au      7.959489      5.668176      8.078503
  Au      8.260800      5.826897      5.309550
  Au      5.939499      6.803164      6.524347
  Au      9.623428      8.081070      4.309824
  Au      8.176761      9.826803     10.278955
  Au      8.100625      7.126089     10.538007
  Au     10.519362      6.106302      9.273093
  Au     10.591177      8.493238     10.836226
  Au     10.490868      9.723888      6.305963
  Au     10.485514     10.599883      8.923313
  Au      8.084380     10.742173      7.563406
  Au     11.884882      8.260379      8.346099
  Cr      8.298009      8.180011      6.705880
