17
E=  -1788.62806282;c=0;m=3
Au      9.522773139025469      6.295386750343510      7.281262619730010
Au      8.330593073133841      9.598513180960650      9.870266423129920
Au     10.389560575405691      7.592530633447000      9.616766994745671
Au     10.917470915202779     10.389878935634350      9.271416779827719
Au      5.855009274904320      8.905772671142680      8.908142165261371
Au      7.688258940178190      6.808362203442790      9.516192236927610
Au      7.251190540751160      4.699926011911800      7.635917841547860
Au      5.039696445083890      6.182664947540380      8.661645971175920
Au      9.020370249680809     10.629342095263070      7.265969591675980
Au     11.077186724529479      8.619910476428201      7.020771360797720
Au      8.775405629333360      8.432847782679440      5.411819629768530
Au      7.936764572739740      5.724522870853940      5.047611996074310
Au      6.167650438955980      7.868267506087600      4.403144247477760
Au      5.105166018603230      5.508023300845060      5.799482148845530
Au      4.309871866930420      8.207728509780550      6.657456342968980
Au      6.530925294976310      9.915600882041160      6.356956757526420
Cr      6.778656710565320      7.227883181597830      6.923568512518730
