19
E=  -2035.36236313;c=0;m=3
Au      7.919357793720090      9.908117241416820      8.029313984650930
Au      5.141873427939570      9.216834533048560      8.716010449942591
Au      5.432478814408880      9.146476536169860      4.052364485514230
Au      6.100980946107300      6.488794824150850      9.285372949979861
Au      5.868460945466010     10.849234362054490      6.402000010515050
Au      8.087172396798810      9.584551666719280      5.213097800676970
Au      3.936398574875390      6.822781983014960      7.559493645445860
Au      3.528794652639370      9.267416808681940      6.255508868311360
Au      8.129827082133330      4.665010011630150      8.431866310854289
Au      6.224579170159200      5.580995025007650      6.555743135944780
Au      7.110864352900910      6.955773730808020      4.326705568865450
Au      9.027146880494680      5.765151408917080      6.018824294448000
Au      9.900698823559480      7.704413606160620      4.202250808504890
Au      7.216659787190940      8.802804635408361     10.542080014218280
Au     10.504155548925979      6.179646144987640      8.385422705161400
Au     10.123583430607299      8.494855347064959      6.834754103078260
Au      8.563926160425391      6.355121754417780     10.611480466618470
Au      9.892440432087369      8.689338375335090      9.583539943732250
Fe      5.894276269559980      8.174632745005891      6.412361593537070
