11
E=  -1145.46311489;c=0;m=6
Au      5.265142773187620      3.832345372380210      6.261783468704030
Au      7.931720166871360      7.311397097713470      7.623977736575680
Au      4.687076924655010      5.205392973890270      4.029447174210380
Au      6.859766306556320      6.285011466639030      5.409004171027290
Au      3.977626320638750      6.525599028975760      6.376555831533110
Au      6.232365735108480      3.368792792832860      8.678019752388741
Au      4.655524734788410      7.871665724031000      8.520067127895381
Au      7.470910512744130      5.514809036875920      9.864990317389880
Au      6.964996670644000      8.152562931959929     10.147491486736730
Au      4.998309711864880      9.925331289868691     10.184609598261570
Mn      5.958130002941060      5.756304304832940      7.791165345277180
