13
Coordinates from ORCA-job pbe E -2893.406624409998
  Au      6.565900      7.363319      4.194854
  Au      9.072525      7.184141      3.124099
  Au      8.953798      6.856977      5.848902
  Au      9.303115      9.366297      7.168921
  Au      8.536627      9.544877      4.422453
  Au      7.172109     11.148787      6.155753
  Au      5.154928      7.698165      8.546011
  Au      7.802770      7.088662      8.310474
  Au      6.976514      9.881513      8.820345
  Au      4.737468     10.386181      7.119487
  Au      2.722906      8.590380      7.632772
  Au      4.474059      7.826339      5.680215
  Fe      6.825191      8.605710      6.460507
13
Coordinates from ORCA-job pbe E -2893.407182283855
  Au      6.572561      7.346301      4.162031
  Au      9.103810      7.207384      3.160357
  Au      8.940130      6.878908      5.885062
  Au      9.287001      9.341356      7.125497
  Au      8.523276      9.559701      4.462069
  Au      7.160535     11.139445      6.143179
  Au      5.197787      7.706412      8.541512
  Au      7.791696      7.080413      8.296784
  Au      6.934948      9.861693      8.795980
  Au      4.781506     10.388157      7.119424
  Au      2.753614      8.615242      7.668583
  Au      4.437603      7.819771      5.677658
  Fe      6.813444      8.596563      6.446659
13
Coordinates from ORCA-job pbe E -2893.407900410246
  Au      6.561176      7.345502      4.164686
  Au      9.104231      7.204737      3.155727
  Au      8.949646      6.866508      5.872702
  Au      9.296041      9.349090      7.136813
  Au      8.530365      9.558460      4.443441
  Au      7.164150     11.154104      6.144194
  Au      5.180334      7.699563      8.547909
  Au      7.798668      7.074421      8.308817
  Au      6.945059      9.868671      8.806926
  Au      4.762431     10.393072      7.120651
  Au      2.748615      8.614244      7.667212
  Au      4.443031      7.815833      5.668217
  Fe      6.814163      8.597140      6.447499
13
Coordinates from ORCA-job pbe E -2893.407990390471
  Au      6.555074      7.343717      4.164613
  Au      9.084547      7.206097      3.164098
  Au      8.947543      6.866250      5.876581
  Au      9.295083      9.350491      7.139105
  Au      8.527017      9.560932      4.445002
  Au      7.167713     11.160618      6.146859
  Au      5.183708      7.697524      8.546900
  Au      7.803176      7.074141      8.315264
  Au      6.948248      9.868655      8.806854
  Au      4.765945     10.394818      7.119076
  Au      2.762051      8.607954      7.651536
  Au      4.444300      7.813510      5.662335
  Fe      6.813506      8.596640      6.446571
13
Coordinates from ORCA-job pbe E -2893.408068041538
  Au      6.542945      7.336371      4.157391
  Au      9.081616      7.207259      3.168031
  Au      8.946873      6.861725      5.888278
  Au      9.289849      9.350659      7.139087
  Au      8.522092      9.572344      4.446918
  Au      7.173096     11.169972      6.151714
  Au      5.192666      7.689846      8.549939
  Au      7.809748      7.074694      8.325088
  Au      6.950220      9.865578      8.802843
  Au      4.773040     10.404597      7.115792
  Au      2.767142      8.607874      7.649121
  Au      4.439230      7.806901      5.649049
  Fe      6.809394      8.593525      6.441541
13
Coordinates from ORCA-job pbe E -2893.408114714659
  Au      6.544931      7.330741      4.148114
  Au      9.092962      7.215109      3.180585
  Au      8.942993      6.859114      5.889029
  Au      9.283988      9.349879      7.137704
  Au      8.516450      9.573329      4.445000
  Au      7.175676     11.172190      6.155210
  Au      5.193619      7.685214      8.546287
  Au      7.812502      7.077057      8.328494
  Au      6.950789      9.862018      8.797865
  Au      4.773561     10.404767      7.111461
  Au      2.777339      8.616992      7.661739
  Au      4.428747      7.805324      5.647860
  Fe      6.804354      8.589612      6.435444
13
Coordinates from ORCA-job pbe E -2893.408146846793
  Au      6.544028      7.331676      4.150308
  Au      9.091906      7.214051      3.179336
  Au      8.941098      6.860729      5.888603
  Au      9.285545      9.349314      7.135687
  Au      8.514812      9.571453      4.445810
  Au      7.178418     11.171098      6.159408
  Au      5.193530      7.686060      8.543848
  Au      7.814580      7.081654      8.329474
  Au      6.948675      9.862057      8.798949
  Au      4.774478     10.402540      7.111275
  Au      2.776088      8.616080      7.660196
  Au      4.431263      7.805668      5.647562
  Fe      6.803491      8.588965      6.434337
13
Coordinates from ORCA-job pbe E -2893.408195333957
  Au      6.544087      7.331068      4.151311
  Au      9.085398      7.209026      3.172969
  Au      8.935985      6.861683      5.888634
  Au      9.290452      9.350001      7.132889
  Au      8.508505      9.569345      4.446686
  Au      7.190308     11.170033      6.176786
  Au      5.195657      7.684660      8.537563
  Au      7.823222      7.099371      8.337239
  Au      6.945627      9.862499      8.803380
  Au      4.776977     10.399478      7.108463
  Au      2.770190      8.611534      7.651987
  Au      4.431833      7.806556      5.647335
  Fe      6.799668      8.586092      6.429551
13
Coordinates from ORCA-job pbe E -2893.408209074221
  Au      6.540804      7.328007      4.147731
  Au      9.088676      7.211368      3.176600
  Au      8.933051      6.860795      5.890554
  Au      9.290842      9.348872      7.130198
  Au      8.504519      9.569904      4.445710
  Au      7.196505     11.170162      6.185354
  Au      5.195267      7.682262      8.534797
  Au      7.828761      7.107749      8.340973
  Au      6.942957      9.861728      8.803308
  Au      4.778105     10.399125      7.106384
  Au      2.773905      8.614180      7.655645
  Au      4.428969      7.804299      5.643135
  Fe      6.795548      8.582896      6.424403
13
Coordinates from ORCA-job pbe E -2893.408212148417
  Au      6.540210      7.326596      4.145768
  Au      9.088450      7.211951      3.178381
  Au      8.933615      6.859721      5.889392
  Au      9.291782      9.349002      7.129597
  Au      8.504463      9.570375      4.445632
  Au      7.198157     11.169833      6.188108
  Au      5.196997      7.681137      8.535263
  Au      7.829080      7.110740      8.342509
  Au      6.942498      9.861673      8.803984
  Au      4.777671     10.400263      7.105558
  Au      2.773779      8.614612      7.655841
  Au      4.426771      7.803421      5.641777
  Fe      6.794437      8.582022      6.422983
13
Coordinates from ORCA-job pbe E -2893.408213126666
  Au      6.539963      7.326236      4.144627
  Au      9.088008      7.211344      3.176570
  Au      8.934232      6.859042      5.890514
  Au      9.292463      9.348824      7.130385
  Au      8.505272      9.571501      4.445165
  Au      7.198426     11.169150      6.188829
  Au      5.195880      7.681577      8.536155
  Au      7.829453      7.111606      8.341926
  Au      6.942259      9.862645      8.804561
  Au      4.777234     10.400431      7.106040
  Au      2.774908      8.613829      7.654729
  Au      4.425530      7.803153      5.642289
  Fe      6.794280      8.582009      6.423003
13
Coordinates from ORCA-job pbe E -2893.408213729503
  Au      6.540330      7.326721      4.145086
  Au      9.087409      7.211841      3.177305
  Au      8.934277      6.859719      5.890226
  Au      9.292394      9.348486      7.130298
  Au      8.505809      9.570835      4.445429
  Au      7.198131     11.168757      6.188074
  Au      5.195621      7.681754      8.536558
  Au      7.829330      7.111059      8.341089
  Au      6.942459      9.862786      8.804202
  Au      4.777284     10.400561      7.106101
  Au      2.773832      8.613747      7.655246
  Au      4.426366      7.802938      5.642007
  Fe      6.794667      8.582143      6.423171
