13
E=  -1363.32371049;c=0;m=4
Au      7.803257242509910      9.887715383238969      9.281543830674909
Au     11.955652280036260      8.305799819938290      7.846797539146530
Au      9.997094599488671      8.188727728613920     10.023664497448889
Au      9.976801014342509      6.165001838998890      7.925236488644620
Au     10.756279830032410      7.142632632825810      5.434254117161320
Au     10.899179350547991     10.072964090306220      5.848980160685480
Au      7.537254922145950      6.948515230749200      9.029799708928961
Au      6.270823229991020      8.719497531090321      4.735422683064630
Au      5.958745224773280      8.675528759367390      7.480563436244540
Au      8.069137376189451     10.406763028369980      6.448234467999160
Au      8.964254263480409      8.881680285784050      4.142322067462740
Au      7.977345423217690      7.051502350313840      6.178868674858790
Mn      9.804735153244470      9.454814440403110      7.945555337679450
