13
Coordinates from ORCA-job pbe E -2780.642739830120
  Au      7.803257      9.887715      9.281544
  Au     11.955652      8.305800      7.846798
  Au      9.997095      8.188728     10.023664
  Au      9.976801      6.165002      7.925236
  Au     10.756280      7.142633      5.434254
  Au     10.899179     10.072964      5.848980
  Au      7.537255      6.948515      9.029800
  Au      6.270823      8.719498      4.735423
  Au      5.958745      8.675529      7.480563
  Au      8.069137     10.406763      6.448234
  Au      8.964254      8.881680      4.142322
  Au      7.977345      7.051502      6.178869
  Mn      9.804735      9.454814      7.945555
13
Coordinates from ORCA-job pbe E -2780.649721795301
  Au      7.769223      9.882581      9.300008
  Au     11.984933      8.285427      7.842509
  Au      9.996791      8.166472     10.051857
  Au      9.972519      6.184644      7.922756
  Au     10.743992      7.155923      5.441019
  Au     10.913731     10.070582      5.812988
  Au      7.542321      6.962371      9.017640
  Au      6.282609      8.714816      4.745688
  Au      5.968298      8.671286      7.473226
  Au      8.049376     10.409305      6.430212
  Au      8.958181      8.876152      4.152290
  Au      7.983977      7.070024      6.185789
  Mn      9.804609      9.451560      7.945260
13
Coordinates from ORCA-job pbe E -2780.654563764549
  Au      7.731694      9.876073      9.326286
  Au     12.023581      8.262801      7.839655
  Au      9.999009      8.141464     10.089087
  Au      9.975834      6.204213      7.926943
  Au     10.741190      7.168556      5.447607
  Au     10.936259     10.067455      5.772623
  Au      7.548256      6.975121      9.014652
  Au      6.273465      8.714994      4.737602
  Au      5.964384      8.669922      7.471151
  Au      8.026807     10.416498      6.410391
  Au      8.955693      8.874465      4.148578
  Au      7.988530      7.084261      6.190645
  Mn      9.805856      9.445322      7.946022
13
Coordinates from ORCA-job pbe E -2780.657334183006
  Au      7.706003      9.861119      9.337590
  Au     12.044103      8.244713      7.833775
  Au      9.996024      8.121660     10.108899
  Au      9.977430      6.231927      7.929903
  Au     10.733254      7.186256      5.459828
  Au     10.946033     10.054306      5.745079
  Au      7.558873      6.993639      9.006076
  Au      6.275382      8.715447      4.739659
  Au      5.972832      8.669145      7.465617
  Au      8.011489     10.413349      6.396755
  Au      8.951040      8.872367      4.157717
  Au      7.994885      7.103141      6.197388
  Mn      9.803212      9.434075      7.942957
13
Coordinates from ORCA-job pbe E -2780.659212055424
  Au      7.684077      9.844822      9.352465
  Au     12.069453      8.227218      7.830181
  Au      9.995864      8.102257     10.133326
  Au      9.987858      6.259370      7.940610
  Au     10.734681      7.203670      5.470122
  Au     10.960161     10.039723      5.720872
  Au      7.568588      7.011292      9.006676
  Au      6.259733      8.720810      4.726334
  Au      5.968451      8.671395      7.461390
  Au      7.996064     10.410227      6.383287
  Au      8.946065      8.873906      4.154556
  Au      7.998056      7.118966      6.201059
  Mn      9.801509      9.417487      7.940364
13
Coordinates from ORCA-job pbe E -2780.660490302333
  Au      7.672914      9.827943      9.357679
  Au     12.084276      8.214482      7.825482
  Au      9.993377      8.088271     10.147799
  Au      9.996990      6.289250      7.950130
  Au     10.732610      7.221737      5.481146
  Au     10.966055     10.023372      5.708278
  Au      7.578405      7.030043      9.003561
  Au      6.253178      8.725278      4.721199
  Au      5.970488      8.674036      7.452661
  Au      7.986495     10.398089      6.374852
  Au      8.937300      8.875272      4.158452
  Au      8.001129      7.137072      6.204715
  Mn      9.797343      9.396299      7.935288
13
Coordinates from ORCA-job pbe E -2780.661476542690
  Au      7.666456      9.816888      9.366788
  Au     12.106198      8.204746      7.822829
  Au      9.993717      8.077236     10.169358
  Au     10.009116      6.315933      7.962102
  Au     10.734393      7.235567      5.487280
  Au     10.976088     10.012723      5.700193
  Au      7.583974      7.044223      9.004353
  Au      6.235193      8.730525      4.705796
  Au      5.961897      8.676990      7.445402
  Au      7.978937     10.386947      6.368660
  Au      8.928959      8.877728      4.152066
  Au      8.001497      7.150956      6.205625
  Mn      9.794136      9.370682      7.930792
13
Coordinates from ORCA-job pbe E -2780.662364791279
  Au      7.667267      9.810896      9.369283
  Au     12.123467      8.199889      7.818534
  Au      9.991775      8.071529     10.186784
  Au     10.017929      6.340937      7.971060
  Au     10.732338      7.246130      5.491163
  Au     10.980042     10.006394      5.700236
  Au      7.587076      7.055526      9.001348
  Au      6.224610      8.734083      4.696835
  Au      5.957017      8.679085      7.438210
  Au      7.976510     10.371448      6.367131
  Au      8.921253      8.879414      4.149419
  Au      8.002078      7.164053      6.206657
  Mn      9.789199      9.341760      7.924582
13
Coordinates from ORCA-job pbe E -2780.663289633068
  Au      7.673071      9.810751      9.367977
  Au     12.139404      8.199021      7.812891
  Au      9.988141      8.070024     10.203187
  Au     10.025245      6.361284      7.978471
  Au     10.730771      7.252292      5.491460
  Au     10.980385     10.005373      5.705952
  Au      7.587008      7.062383      8.999017
  Au      6.215471      8.736884      4.689019
  Au      5.950301      8.680531      7.434101
  Au      7.978346     10.356818      6.369599
  Au      8.916528      8.881057      4.144718
  Au      8.001921      7.173239      6.206798
  Mn      9.783968      9.311485      7.918053
13
Coordinates from ORCA-job pbe E -2780.664271077162
  Au      7.683424      9.815678      9.361089
  Au     12.151940      8.201811      7.805029
  Au      9.981691      8.072420     10.216514
  Au     10.030681      6.376387      7.983929
  Au     10.729735      7.254565      5.488719
  Au     10.975296     10.008780      5.717100
  Au      7.584238      7.065283      8.997420
  Au      6.211234      8.738885      4.685466
  Au      5.943778      8.681359      7.432459
  Au      7.984367     10.343427      6.375853
  Au      8.914314      8.882561      4.139947
  Au      8.001355      7.178675      6.206370
  Mn      9.778507      9.281312      7.911347
13
Coordinates from ORCA-job pbe E -2780.665233578775
  Au      7.694405      9.823464      9.351558
  Au     12.162998      8.206276      7.794796
  Au      9.972581      8.076538     10.228553
  Au     10.035165      6.387441      7.988382
  Au     10.729195      7.254191      5.484213
  Au     10.967195     10.014703      5.729386
  Au      7.579968      7.065428      8.996574
  Au      6.211067      8.740692      4.685386
  Au      5.937520      8.681425      7.432948
  Au      7.991668     10.334091      6.383271
  Au      8.914290      8.883783      4.135108
  Au      8.001134      7.181300      6.206086
  Mn      9.773375      9.251810      7.904981
13
Coordinates from ORCA-job pbe E -2780.666158979809
  Au      7.702517      9.830700      9.343042
  Au     12.174717      8.210031      7.782809
  Au      9.961810      8.079817     10.241353
  Au     10.040132      6.398009      7.993303
  Au     10.728459      7.253636      5.480301
  Au     10.959592     10.020244      5.738781
  Au      7.576307      7.065448      8.995633
  Au      6.212548      8.743131      4.686733
  Au      5.932232      8.681006      7.433887
  Au      7.997024     10.328612      6.388934
  Au      8.914813      8.884699      4.130946
  Au      8.001855      7.183800      6.206643
  Mn      9.768553      9.222012      7.898878
13
Coordinates from ORCA-job pbe E -2780.667071746788
  Au      7.708105      9.837919      9.334946
  Au     12.186197      8.213513      7.768683
  Au      9.948899      8.082657     10.254108
  Au     10.045906      6.406429      7.998886
  Au     10.727771      7.252519      5.476886
  Au     10.951867     10.025916      5.745764
  Au      7.573203      7.064914      8.994882
  Au      6.215826      8.746242      4.689665
  Au      5.928344      8.680338      7.435412
  Au      8.000710     10.327420      6.393049
  Au      8.916080      8.885445      4.127800
  Au      8.003535      7.185643      6.208023
  Mn      9.764117      9.192188      7.893139
13
Coordinates from ORCA-job pbe E -2780.667971740235
  Au      7.711106      9.844915      9.327145
  Au     12.196909      8.216810      7.752407
  Au      9.933793      8.085108     10.266368
  Au     10.052871      6.411863      8.005426
  Au     10.726973      7.251002      5.474496
  Au     10.943929     10.031591      5.750295
  Au      7.571155      7.064006      8.994156
  Au      6.220311      8.750329      4.693693
  Au      5.926448      8.679558      7.437314
  Au      8.002732     10.330535      6.395572
  Au      8.917928      8.886010      4.126195
  Au      8.006339      7.186890      6.210384
  Mn      9.760066      9.162526      7.887792
13
Coordinates from ORCA-job pbe E -2780.668840742456
  Au      7.712338      9.851369      9.319102
  Au     12.206483      8.220309      7.734535
  Au      9.916981      8.087548     10.277808
  Au     10.061489      6.413786      8.013300
  Au     10.725857      7.249341      5.473585
  Au     10.935497     10.036980      5.753185
  Au      7.570566      7.062981      8.993202
  Au      6.224808      8.755948      4.697846
  Au      5.926759      8.678808      7.438994
  Au      8.003829     10.336699      6.397093
  Au      8.919765      8.886374      4.126411
  Au      8.010021      7.187700      6.213527
  Mn      9.756167      9.133300      7.882655
13
Coordinates from ORCA-job pbe E -2780.669666600077
  Au      7.713543      9.857443      9.310216
  Au     12.214976      8.224560      7.716063
  Au      9.899411      8.090585     10.288443
  Au     10.071856      6.412376      8.022578
  Au     10.724257      7.247544      5.474122
  Au     10.926299     10.042177      5.756139
  Au      7.571360      7.061814      8.991773
  Au      6.228169      8.763356      4.701174
  Au      5.928595      8.678135      7.439786
  Au      8.005322     10.343771      6.398734
  Au      8.920847      8.886491      4.127965
  Au      8.013900      7.188102      6.216858
  Mn      9.752025      9.104791      7.877393
13
Coordinates from ORCA-job pbe E -2780.670454781913
  Au      7.715645      9.863496      9.300829
  Au     12.222785      8.229583      7.697825
  Au      9.881940      8.094321     10.298587
  Au     10.083891      6.408159      8.033215
  Au     10.721979      7.245626      5.476021
  Au     10.916718     10.047524      5.759971
  Au      7.573401      7.060476      8.989610
  Au      6.229859      8.772372      4.703175
  Au      5.931158      8.677488      7.439259
  Au      8.007632     10.350535      6.400818
  Au      8.920662      8.886293      4.130195
  Au      8.017457      7.188155      6.219914
  Mn      9.747434      9.077113      7.871825
13
Coordinates from ORCA-job pbe E -2780.671213640530
  Au      7.718922      9.869644      9.291360
  Au     12.229953      8.235179      7.680356
  Au      9.865105      8.098668     10.308227
  Au     10.097465      6.401636      8.045132
  Au     10.718786      7.243738      5.479340
  Au     10.907061     10.053164      5.764867
  Au      7.576694      7.059102      8.986421
  Au      6.229793      8.782774      4.703729
  Au      5.934099      8.676813      7.437492
  Au      8.010709     10.356514      6.403259
  Au      8.919263      8.885733      4.132737
  Au      8.020466      7.187892      6.222501
  Mn      9.742243      9.050286      7.865822
13
Coordinates from ORCA-job pbe E -2780.671948215622
  Au      7.723316      9.875909      9.282224
  Au     12.236463      8.241131      7.664086
  Au      9.849334      8.103516     10.317285
  Au     10.112523      6.393169      8.058314
  Au     10.714607      7.241973      5.484089
  Au     10.897579     10.059161      5.770710
  Au      7.581227      7.057757      8.982093
  Au      6.228220      8.794412      4.703009
  Au      5.937200      8.676155      7.434645
  Au      8.014242     10.361596      6.405763
  Au      8.916788      8.884836      4.135317
  Au      8.022708      7.187261      6.224411
  Mn      9.736352      9.024266      7.859296
13
Coordinates from ORCA-job pbe E -2780.672660645892
  Au      7.728595      9.882142      9.273740
  Au     12.242219      8.247252      7.649345
  Au      9.834954      8.108751     10.325578
  Au     10.128908      6.383399      8.072658
  Au     10.709474      7.240386      5.490260
  Au     10.888451     10.065382      5.777249
  Au      7.586988      7.056486      8.976602
  Au      6.225494      8.807210      4.701301
  Au      5.940304      8.675576      7.431114
  Au      8.017846     10.365881      6.408033
  Au      8.913619      8.883629      4.137700
  Au      8.024033      7.186172      6.225494
  Mn      9.729674      8.998878      7.852168
13
Coordinates from ORCA-job pbe E -2780.673353437719
  Au      7.734419      9.888199      9.266066
  Au     12.247183      8.253493      7.636300
  Au      9.822142      8.114318     10.332965
  Au     10.146444      6.372886      8.088036
  Au     10.703607      7.238886      5.497645
  Au     10.879761     10.071648      5.784175
  Au      7.593795      7.055189      8.970130
  Au      6.222197      8.821121      4.699105
  Au      5.943323      8.675167      7.427276
  Au      8.021113     10.369675      6.409803
  Au      8.910116      8.882166      4.139758
  Au      8.024257      7.184483      6.225562
  Mn      9.722203      8.973912      7.844422
13
Coordinates from ORCA-job pbe E -2780.674031545026
  Au      7.740568      9.893913      9.259125
  Au     12.251270      8.259920      7.625002
  Au      9.810951      8.120228     10.339267
  Au     10.164904      6.362188      8.104255
  Au     10.697232      7.237340      5.506022
  Au     10.871474     10.077714      5.791322
  Au      7.601451      7.053748      8.962881
  Au      6.218737      8.836138      4.696789
  Au      5.946248      8.674971      7.423551
  Au      8.023820     10.373261      6.411004
  Au      8.906693      8.880474      4.141483
  Au      8.023257      7.182041      6.224485
  Mn      9.713954      8.949206      7.836056
13
Coordinates from ORCA-job pbe E -2780.674701776212
  Au      7.746931      9.899240      9.252786
  Au     12.254462      8.266637      7.615492
  Au      9.801424      8.126518     10.344393
  Au     10.184145      6.351581      8.121176
  Au     10.690567      7.235567      5.515143
  Au     10.863564     10.083452      5.798638
  Au      7.609738      7.052012      8.955070
  Au      6.215419      8.852228      4.694641
  Au      5.949112      8.675014      7.420106
  Au      8.025843     10.376847      6.411630
  Au      8.903507      8.878596      4.142969
  Au      8.020871      7.178710      6.222102
  Mn      9.704976      8.924741      7.827098
13
Coordinates from ORCA-job pbe E -2780.675371114878
  Au      7.753486      9.904133      9.246944
  Au     12.256710      8.273687      7.607815
  Au      9.793607      8.133169     10.348228
  Au     10.203981      6.341405      8.138628
  Au     10.683718      7.233468      5.524863
  Au     10.856065     10.088732      5.806138
  Au      7.618528      7.049924      8.946815
  Au      6.212318      8.869282      4.692746
  Au      5.951963      8.675263      7.417080
  Au      8.027160     10.380543      6.411740
  Au      8.900700      8.876553      4.144350
  Au      8.017028      7.174422      6.218344
  Mn      9.695294      8.900562      7.817553
13
Coordinates from ORCA-job pbe E -2780.676045122812
  Au      7.760200      9.908637      9.241552
  Au     12.258010      8.281052      7.601968
  Au      9.787514      8.140134     10.350723
  Au     10.224222      6.331828      8.156431
  Au     10.676792      7.230982      5.534977
  Au     10.849054     10.093527      5.813831
  Au      7.627639      7.047459      8.938252
  Au      6.209562      8.887046      4.691221
  Au      5.954842      8.675681      7.414475
  Au      8.027754     10.384498      6.411370
  Au      8.898280      8.874401      4.145767
  Au      8.011740      7.169165      6.213227
  Mn      9.684951      8.876732      7.807449
13
Coordinates from ORCA-job pbe E -2780.676724235762
  Au      7.767057      9.912828      9.236657
  Au     12.258501      8.288583      7.597609
  Au      9.782839      8.147321     10.352035
  Au     10.244448      6.323046      8.174214
  Au     10.669825      7.228276      5.545226
  Au     10.842620     10.097881      5.821742
  Au      7.636834      7.044801      8.929476
  Au      6.207274      8.904968      4.690161
  Au      5.957688      8.676190      7.412186
  Au      8.027705     10.388881      6.410610
  Au      8.896151      8.872180      4.147211
  Au      8.005549      7.163184      6.207250
  Mn      9.674070      8.853003      7.796866
13
Coordinates from ORCA-job pbe E -2780.677406969116
  Au      7.773793      9.916588      9.232681
  Au     12.258082      8.296127      7.595301
  Au      9.780211      8.154573     10.351811
  Au     10.264298      6.315798      8.191629
  Au     10.663117      7.225310      5.555401
  Au     10.837323     10.101569      5.829719
  Au      7.645893      7.041942      8.920681
  Au      6.205742      8.922804      4.689885
  Au      5.960421      8.676779      7.410387
  Au      8.026398     10.394133      6.409089
  Au      8.894492      8.869826      4.148742
  Au      7.998282      7.156417      6.200265
  Mn      9.662508      8.829278      7.785652
13
Coordinates from ORCA-job pbe E -2780.678093518226
  Au      7.780456      9.920150      9.228148
  Au     12.256183      8.304434      7.593901
  Au      9.778495      8.162462     10.349675
  Au     10.284035      6.308899      8.208833
  Au     10.657087      7.221250      5.565054
  Au     10.832014     10.104727      5.837995
  Au      7.654444      7.038126      8.912374
  Au      6.205098      8.940994      4.690506
  Au      5.963830      8.677239      7.409711
  Au      8.024745     10.400494      6.407647
  Au      8.894005      8.867294      4.151349
  Au      7.989699      7.148782      6.192067
  Mn      9.650468      8.806292      7.773983
13
Coordinates from ORCA-job pbe E -2780.678787201023
  Au      7.787477      9.923224      9.222445
  Au     12.253545      8.313854      7.591874
  Au      9.776202      8.171170     10.347007
  Au     10.304260      6.302001      8.226471
  Au     10.651234      7.216085      5.574648
  Au     10.826203     10.107336      5.846690
  Au      7.662975      7.033397      8.904235
  Au      6.203834      8.960212      4.690635
  Au      5.968263      8.677502      7.409299
  Au      8.024184     10.406293      6.407254
  Au      8.893898      8.864678      4.155449
  Au      7.980069      7.141050      6.182954
  Mn      9.638416      8.784343      7.762282
13
Coordinates from ORCA-job pbe E -2780.679488789540
  Au      7.794699      9.925653      9.216064
  Au     12.250621      8.324294      7.589597
  Au      9.773865      8.180352     10.344359
  Au     10.325349      6.295854      8.244936
  Au     10.646084      7.209445      5.584021
  Au     10.820740     10.109332      5.855475
  Au      7.671374      7.027438      8.896761
  Au      6.201106      8.980847      4.689595
  Au      5.973698      8.677717      7.408617
  Au      8.024565     10.410827      6.407807
  Au      8.893674      8.862137      4.161333
  Au      7.968373      7.133044      6.172065
  Mn      9.626412      8.764206      7.750613
13
Coordinates from ORCA-job pbe E -2780.680188004512
  Au      7.801683      9.928215      9.211152
  Au     12.248176      8.334251      7.587603
  Au      9.771834      8.188919     10.342541
  Au     10.346792      6.291124      8.263990
  Au     10.640024      7.201836      5.594282
  Au     10.816553     10.111762      5.863360
  Au      7.680737      7.020705      8.888542
  Au      6.197476      9.001871      4.687569
  Au      5.979289      8.677677      7.406964
  Au      8.024881     10.415078      6.408042
  Au      8.892630      8.859795      4.167489
  Au      7.955910      7.124773      6.160549
  Mn      9.614575      8.745137      7.739161
13
Coordinates from ORCA-job pbe E -2780.680881619072
  Au      7.808250      9.931097      9.207137
  Au     12.245879      8.343565      7.585196
  Au      9.769204      8.196844     10.341413
  Au     10.368582      6.287627      8.283576
  Au     10.632978      7.193184      5.605134
  Au     10.812851     10.114844      5.870123
  Au      7.690778      7.013082      8.879598
  Au      6.194000      9.022938      4.685500
  Au      5.985247      8.677302      7.404870
  Au      8.025497     10.419597      6.408248
  Au      8.891295      8.857736      4.173714
  Au      7.942997      7.116053      6.148702
  Mn      9.603003      8.727275      7.728030
13
Coordinates from ORCA-job pbe E -2780.681563797917
  Au      7.814198      9.933981      9.203992
  Au     12.243289      8.352105      7.582690
  Au      9.766216      8.204113     10.340165
  Au     10.390307      6.286123      8.303160
  Au     10.625129      7.183889      5.616112
  Au     10.809614     10.117981      5.875890
  Au      7.700989      7.004862      8.870107
  Au      6.191811      9.043478      4.684435
  Au      5.991318      8.676677      7.403160
  Au      8.025861     10.425117      6.408210
  Au      8.890420      8.855801      4.179629
  Au      7.929881      7.106916      6.136657
  Mn      9.591527      8.710099      7.717035
13
Coordinates from ORCA-job pbe E -2780.682228667575
  Au      7.819820      9.936863      9.200638
  Au     12.240611      8.360356      7.578918
  Au      9.761689      8.211055     10.339371
  Au     10.412570      6.285819      8.323245
  Au     10.616674      7.173641      5.626723
  Au     10.805985     10.121216      5.880934
  Au      7.710940      6.995705      8.860385
  Au      6.190503      9.063821      4.684027
  Au      5.997787      8.675882      7.401847
  Au      8.027104     10.430891      6.408854
  Au      8.890016      8.854141      4.185543
  Au      7.916429      7.097427      6.124322
  Mn      9.580431      8.694326      7.706435
13
Coordinates from ORCA-job pbe E -2780.682870914895
  Au      7.824916      9.939391      9.197924
  Au     12.237596      8.368055      7.575205
  Au      9.757091      8.217493     10.337915
  Au     10.434608      6.287802      8.342989
  Au     10.608048      7.163147      5.636758
  Au     10.803020     10.123767      5.885685
  Au      7.720311      6.986261      8.850528
  Au      6.190778      9.083258      4.685048
  Au      6.004015      8.675106      7.401437
  Au      8.027577     10.437788      6.409152
  Au      8.890439      8.852398      4.190983
  Au      7.902823      7.087859      6.111798
  Mn      9.569337      8.678820      7.695820
13
Coordinates from ORCA-job pbe E -2780.683484038096
  Au      7.830024      9.942184      9.194321
  Au     12.235111      8.375685      7.569299
  Au      9.750232      8.223652     10.337688
  Au     10.457521      6.290170      8.363598
  Au     10.599097      7.151562      5.646196
  Au     10.799193     10.126710      5.890137
  Au      7.729248      6.975724      8.840636
  Au      6.190879      9.102709      4.685814
  Au      6.010709      8.674252      7.401078
  Au      8.029644     10.444005      6.410672
  Au      8.890990      8.850962      4.196817
  Au      7.888978      7.078390      6.099118
  Mn      9.558935      8.665140      7.685871
13
Coordinates from ORCA-job pbe E -2780.684063140027
  Au      7.834474      9.944745      9.192190
  Au     12.232309      8.382243      7.564488
  Au      9.744553      8.228933     10.336087
  Au     10.479440      6.295608      8.383157
  Au     10.590335      7.140128      5.655065
  Au     10.796936     10.128814      5.894689
  Au      7.737548      6.965317      8.830568
  Au      6.192966      9.120513      4.688481
  Au      6.016685      8.673540      7.401835
  Au      8.029407     10.452121      6.410786
  Au      8.892474      8.849177      4.201898
  Au      7.875221      7.069159      6.086423
  Mn      9.548213      8.650846      7.675577
13
Coordinates from ORCA-job pbe E -2780.684601394002
  Au      7.839341      9.948309      9.187950
  Au     12.230826      8.388758      7.555479
  Au      9.734771      8.233823     10.337345
  Au     10.502681      6.299980      8.404261
  Au     10.581142      7.127018      5.663651
  Au     10.792558     10.132506      5.898863
  Au      7.745869      6.953296      8.820515
  Au      6.193104      9.138878      4.689194
  Au      6.023804      8.672577      7.401786
  Au      8.032625     10.457959      6.413314
  Au      8.893425      8.847993      4.208312
  Au      7.861513      7.060458      6.073920
  Mn      9.538901      8.639589      7.666655
13
Coordinates from ORCA-job pbe E -2780.685098152517
  Au      7.843420      9.951654      9.186172
  Au     12.228454      8.393704      7.549480
  Au      9.728225      8.237689     10.335620
  Au     10.523778      6.308526      8.423137
  Au     10.572637      7.114475      5.671406
  Au     10.790818     10.134964      5.903729
  Au      7.753179      6.941832      8.810347
  Au      6.196689      9.154418      4.693243
  Au      6.029710      8.671977      7.403668
  Au      8.031296     10.467373      6.412954
  Au      8.895995      8.846168      4.213558
  Au      7.847853      7.051787      6.061247
  Mn      9.528508      8.626574      7.656680
13
Coordinates from ORCA-job pbe E -2780.685550478514
  Au      7.848005      9.956585      9.182059
  Au     12.228208      8.398136      7.537342
  Au      9.715645      8.240667     10.338317
  Au     10.546333      6.315168      8.443891
  Au     10.563063      7.100141      5.679689
  Au     10.786456     10.140060      5.907717
  Au      7.761409      6.928685      8.799874
  Au      6.196986      9.170592      4.693959
  Au      6.037172      8.670937      7.403888
  Au      8.034518     10.473478      6.415586
  Au      8.897328      8.845248      4.220478
  Au      7.835119      7.044240      6.049605
  Mn      9.520318      8.617206      7.648839
13
Coordinates from ORCA-job pbe E -2780.685960463773
  Au      7.852235      9.961567      9.179330
  Au     12.226936      8.401484      7.527875
  Au      9.706091      8.242954     10.338069
  Au     10.566696      6.325460      8.462340
  Au     10.554873      7.085711      5.686541
  Au     10.784099     10.144234      5.912945
  Au      7.768079      6.915479      8.789955
  Au      6.200452      9.183916      4.697815
  Au      6.043970      8.670467      7.406405
  Au      8.033793     10.482641      6.415851
  Au      8.900709      8.843915      4.227060
  Au      7.821597      7.036263      6.037083
  Mn      9.511028      8.607053      7.639976
13
Coordinates from ORCA-job pbe E -2780.686326244590
  Au      7.856809      9.968020      9.176099
  Au     12.227725      8.403387      7.513200
  Au      9.691276      8.243893     10.341426
  Au     10.587476      6.334656      8.481632
  Au     10.544651      7.070715      5.694540
  Au     10.780324     10.150692      5.917340
  Au      7.776115      6.901714      8.778668
  Au      6.202030      9.196254      4.699500
  Au      6.051581      8.669717      7.407672
  Au      8.035506     10.490135      6.417492
  Au      8.903139      8.843361      4.234112
  Au      7.810367      7.029723      6.026693
  Mn      9.503560      8.598874      7.632869
13
Coordinates from ORCA-job pbe E -2780.686651823669
  Au      7.861246      9.974799      9.172845
  Au     12.228002      8.404681      7.500230
  Au      9.678729      8.243992     10.343018
  Au     10.606191      6.346674      8.498730
  Au     10.536960      7.054860      5.700653
  Au     10.777935     10.156763      5.923021
  Au      7.782226      6.887208      8.769283
  Au      6.205076      9.206091      4.702817
  Au      6.059148      8.669777      7.410969
  Au      8.034830     10.498731      6.417846
  Au      8.907374      8.842906      4.241855
  Au      7.797142      7.022660      6.014544
  Mn      9.495702      8.592002      7.625432
13
Coordinates from ORCA-job pbe E -2780.686938696763
  Au      7.866276      9.982820      9.170318
  Au     12.230203      8.404065      7.482378
  Au      9.660942      8.242666     10.347586
  Au     10.624787      6.357552      8.516180
  Au     10.525834      7.039762      5.708617
  Au     10.774512     10.164727      5.928057
  Au      7.790225      6.873313      8.757064
  Au      6.207346      9.213638      4.704882
  Au      6.067020      8.669697      7.413287
  Au      8.035457     10.506824      6.418630
  Au      8.910876      8.843124      4.249050
  Au      7.787759      7.017324      6.005788
  Mn      9.489323      8.585631      7.619405
13
Coordinates from ORCA-job pbe E -2780.687192438242
  Au      7.871191      9.991150      9.167049
  Au     12.232133      8.403141      7.466704
  Au      9.646067      8.240286     10.350771
  Au     10.641138      6.370938      8.531206
  Au     10.518261      7.023557      5.714412
  Au     10.772352     10.172338      5.934412
  Au      7.795959      6.858476      8.747780
  Au      6.210041      9.218712      4.707652
  Au      6.075076      8.670702      7.417620
  Au      8.034267     10.514845      6.418475
  Au      8.916079      8.843731      4.257494
  Au      7.775155      7.011430      5.994343
  Mn      9.482840      8.581835      7.613325
13
Coordinates from ORCA-job pbe E -2780.687415392205
  Au      7.876822     10.000448      9.164968
  Au     12.235709      8.400349      7.447040
  Au      9.626799      8.236533     10.356256
  Au     10.657106      6.383417      8.546242
  Au     10.507486      7.008544      5.721948
  Au     10.769749     10.181381      5.940496
  Au      7.803356      6.844641      8.735692
  Au      6.212492      9.220801      4.709783
  Au      6.083103      8.671899      7.421318
  Au      8.033558     10.522814      6.418204
  Au      8.920748      8.845030      4.264958
  Au      7.766103      7.007110      5.985986
  Mn      9.477528      8.578176      7.608352
13
Coordinates from ORCA-job pbe E -2780.687609805108
  Au      7.882698     10.009823      9.162454
  Au     12.239403      8.397064      7.428523
  Au      9.609186      8.231758     10.361208
  Au     10.671022      6.397506      8.559227
  Au     10.498533      6.993297      5.728522
  Au     10.767835     10.190113      5.947586
  Au      7.809606      6.830631      8.725061
  Au      6.214742      9.220222      4.711805
  Au      6.091312      8.674058      7.426490
  Au      8.031857     10.530184      6.417329
  Au      8.926683      8.846847      4.273275
  Au      7.755266      7.002985      5.976159
  Mn      9.472416      8.576655      7.603604
13
Coordinates from ORCA-job pbe E -2780.687776350131
  Au      7.888945     10.019670      9.160756
  Au     12.244257      8.392611      7.408379
  Au      9.589850      8.226037     10.367522
  Au     10.684154      6.410970      8.571662
  Au     10.488392      6.978820      5.735748
  Au     10.766095     10.199532      5.954678
  Au      7.816400      6.817288      8.713316
  Au      6.216959      9.216770      4.713616
  Au      6.099350      8.676792      7.431489
  Au      8.029931     10.537380      6.416022
  Au      8.932366      8.849433      4.280911
  Au      7.745751      6.999877      5.967496
  Mn      9.468110      8.575964      7.599646
13
Coordinates from ORCA-job pbe E -2780.687915079877
  Au      7.895615     10.028945      9.159013
  Au     12.248997      8.387861      7.389150
  Au      9.571735      8.219886     10.373359
  Au     10.695585      6.425570      8.582541
  Au     10.478628      6.964849      5.743069
  Au     10.764760     10.208179      5.962549
  Au      7.823109      6.804470      8.701769
  Au      6.218618      9.211341      4.714873
  Au      6.107362      8.680149      7.437574
  Au      8.027603     10.543895      6.414462
  Au      8.939023      8.852368      4.288797
  Au      7.735607      6.997334      5.958250
  Mn      9.463918      8.576297      7.595836
13
Coordinates from ORCA-job pbe E -2780.688025879949
  Au      7.901993     10.038474      9.157858
  Au     12.254656      8.382557      7.369194
  Au      9.552890      8.213337     10.380453
  Au     10.706948      6.438834      8.593526
  Au     10.468341      6.951163      5.750799
  Au     10.763570     10.217378      5.969776
  Au      7.830229      6.791893      8.689812
  Au      6.220384      9.204493      4.716136
  Au      6.115163      8.683896      7.442800
  Au      8.025215     10.550091      6.412617
  Au      8.944785      8.855991      4.296085
  Au      7.725917      6.995512      5.949411
  Mn      9.460468      8.577522      7.592776
13
Coordinates from ORCA-job pbe E -2780.688110940469
  Au      7.907679     10.046255      9.157423
  Au     12.258585      8.377799      7.350161
  Au      9.535061      8.207431     10.385626
  Au     10.717360      6.452974      8.603713
  Au     10.457843      6.937785      5.759541
  Au     10.763133     10.224756      5.976590
  Au      7.838263      6.779682      8.677498
  Au      6.221593      9.198209      4.716888
  Au      6.122630      8.687385      7.449153
  Au      8.023133     10.556734      6.411134
  Au      8.951624      8.859139      4.302897
  Au      7.716552      6.993949      5.940794
  Mn      9.457104      8.579046      7.589824
13
Coordinates from ORCA-job pbe E -2780.688171778806
  Au      7.911765     10.053529      9.156980
  Au     12.263136      8.373561      7.332630
  Au      9.518791      8.202322     10.391184
  Au     10.727716      6.466613      8.613822
  Au     10.446927      6.924035      5.768504
  Au     10.762488     10.231826      5.981909
  Au      7.846434      6.767179      8.664644
  Au      6.224722      9.192426      4.719441
  Au      6.130348      8.690893      7.453808
  Au      8.021282     10.562288      6.409829
  Au      8.956790      8.862168      4.310065
  Au      7.706447      6.993396      5.931551
  Mn      9.453715      8.580909      7.586877
13
Coordinates from ORCA-job pbe E -2780.688208948009
  Au      7.914919     10.059822      9.158147
  Au     12.267173      8.369818      7.317071
  Au      9.504464      8.197999     10.396025
  Au     10.738196      6.479935      8.624025
  Au     10.437234      6.909611      5.778355
  Au     10.763326     10.238108      5.986082
  Au      7.855632      6.754011      8.652898
  Au      6.223275      9.189333      4.718005
  Au      6.135119      8.693748      7.460619
  Au      8.020270     10.569649      6.409408
  Au      8.963891      8.864897      4.314111
  Au      7.696210      6.991341      5.922074
  Mn      9.450851      8.582870      7.584423
13
Coordinates from ORCA-job pbe E -2780.688232817251
  Au      7.916796     10.064843      9.158027
  Au     12.268682      8.366827      7.301537
  Au      9.489965      8.194519     10.398471
  Au     10.747241      6.494014      8.632958
  Au     10.425444      6.896288      5.789075
  Au     10.762934     10.243064      5.989056
  Au      7.865372      6.742115      8.639092
  Au      6.228012      9.185933      4.722101
  Au      6.144007      8.695937      7.464330
  Au      8.019867     10.573464      6.409391
  Au      8.968463      8.866580      4.322636
  Au      7.686465      6.992168      5.913157
  Mn      9.447311      8.585390      7.581411
13
Coordinates from ORCA-job pbe E -2780.688240202858
  Au      7.916488     10.067034      9.159162
  Au     12.270044      8.366186      7.296323
  Au      9.485220      8.193726     10.400203
  Au     10.751785      6.498687      8.637333
  Au     10.421245      6.889617      5.794118
  Au     10.763926     10.245387      5.988984
  Au      7.870125      6.736078      8.633980
  Au      6.227817      9.186990      4.722012
  Au      6.145766      8.696274      7.465748
  Au      8.020066     10.575699      6.409764
  Au      8.970087      8.867002      4.324271
  Au      7.681775      6.991645      5.908814
  Mn      9.446216      8.586818      7.580532
13
Coordinates from ORCA-job pbe E -2780.688246395469
  Au      7.914389     10.067424      9.160343
  Au     12.269594      8.366782      7.294283
  Au      9.483255      8.194379     10.399971
  Au     10.754709      6.501071      8.640143
  Au     10.418315      6.884687      5.798779
  Au     10.764991     10.246018      5.986796
  Au      7.874592      6.731729      8.630362
  Au      6.227446      9.190750      4.721943
  Au      6.146917      8.695349      7.466288
  Au      8.021258     10.576668      6.410944
  Au      8.970859      8.866356      4.325417
  Au      7.678703      6.991337      5.905928
  Mn      9.445533      8.588592      7.580045
13
Coordinates from ORCA-job pbe E -2780.688250936455
  Au      7.910982     10.066437      9.161573
  Au     12.267887      8.368325      7.296068
  Au      9.484751      8.196126     10.398312
  Au     10.755583      6.499976      8.640923
  Au     10.417374      6.882603      5.801800
  Au     10.766156     10.245316      5.983015
  Au      7.877577      6.730019      8.629103
  Au      6.227305      9.195813      4.722203
  Au      6.146920      8.693497      7.465306
  Au      8.022794     10.576294      6.412314
  Au      8.970025      8.864863      4.325569
  Au      7.677641      6.991306      5.904863
  Mn      9.445566      8.590569      7.580194
13
Coordinates from ORCA-job pbe E -2780.688252799579
  Au      7.908891     10.065262      9.161958
  Au     12.266237      8.369350      7.299101
  Au      9.487389      8.197333     10.396562
  Au     10.754691      6.497303      8.640006
  Au     10.418007      6.883614      5.802061
  Au     10.766519     10.244288      5.980624
  Au      7.877911      6.731080      8.629803
  Au      6.227380      9.198150      4.722500
  Au      6.146418      8.692319      7.464425
  Au      8.023547     10.575640      6.412902
  Au      8.969132      8.863856      4.325148
  Au      7.678401      6.991274      5.905495
  Mn      9.446037      8.591673      7.580658
