%pal nprocs 1 end 

!PBE def2-TZVP OPT UNO
!SLOWCONV

*xyz 0 5  
 Au  7.08088746842608      5.28351093808632      7.32065361468019
 Au  8.78264997826374      6.16487909021830      5.40384975294638
 Au  7.15717995153128      8.40384404609471      4.72139856949889
 Au  8.84228625541944     10.44306017394841      6.14563912834709
 Au  9.92613868712282      8.50179709640499      4.50809016622455
 Au  9.65306464323042      6.01076955513069      8.09762828240291
 Au  10.58799704998242      8.53162779401168      7.27933787416705
 Au  6.32856068526750      8.50505557679215      9.39446539882977
 Au  8.01054968741188     10.57087484961788      8.75310457873825
 Au  5.32478620145710      7.39255881088918      6.53308157636599
 Au  7.60146628305174      6.04065332704166     10.03289642653988
 Au  5.00067869495395      6.11497420469343      8.95751986170216
 Au  9.23451293950894      8.26024802672738      9.70632745804242
 Au  6.14499898249416     10.01284503677370      6.74992673398022
 Fe  7.94074197187838      8.00562113356925      7.29216269753397
*
