13
E=  -1362.86870979;c=0;m=6
Au      7.847807716207690      8.998733652706459     11.448038193565459
Au      5.621009218878280      8.048582015900431     10.150655497879679
Au      7.069110229371300     10.476913350729310      6.257549182999480
Au      4.946964648133720      9.518792657672639      7.770508552469390
Au      7.264630922785420     10.426900566108211      9.025388894361839
Au      9.995604034215701      9.791261581261709      9.840653871681219
Au      9.622192718368410      9.410316816868081      7.185812372182810
Au      4.640463607238840      6.753734244410980      7.883174531254760
Au      7.148364447647260      5.829766362238640      9.148298175373441
Au      8.496497988314070      6.757971472427610      7.002447507025410
Au      8.509467010384620      8.533353774612600      4.808731208122010
Au      5.989883053686820      7.796899430828180      5.721473358088250
Mn      8.421294074767870      7.935377764235150      9.237220614996231
