13
Coordinates from ORCA-job pbe E -2780.663898784595
  Au      7.847808      8.998734     11.448038
  Au      5.621009      8.048582     10.150655
  Au      7.069110     10.476913      6.257549
  Au      4.946965      9.518793      7.770509
  Au      7.264631     10.426901      9.025389
  Au      9.995604      9.791262      9.840654
  Au      9.622193      9.410317      7.185812
  Au      4.640464      6.753734      7.883175
  Au      7.148364      5.829766      9.148298
  Au      8.496498      6.757971      7.002448
  Au      8.509467      8.533354      4.808731
  Au      5.989883      7.796899      5.721473
  Mn      8.421294      7.935378      9.237221
13
Coordinates from ORCA-job pbe E -2780.669323433312
  Au      7.825329      9.017556     11.466546
  Au      5.622067      8.045536     10.142398
  Au      7.074557     10.449021      6.293763
  Au      4.979903      9.502462      7.777074
  Au      7.268310     10.411963      9.017905
  Au     10.011891      9.836195      9.835551
  Au      9.628417      9.415887      7.186092
  Au      4.647614      6.769708      7.882288
  Au      7.129657      5.814115      9.118195
  Au      8.469229      6.752420      6.970418
  Au      8.506105      8.525325      4.822221
  Au      5.993834      7.794441      5.740068
  Mn      8.416375      7.943976      9.227433
13
Coordinates from ORCA-job pbe E -2780.673432025455
  Au      7.806295      9.048640     11.492113
  Au      5.625883      8.037513     10.150913
  Au      7.093347     10.430970      6.317503
  Au      4.997234      9.489996      7.790192
  Au      7.284499     10.403615      9.034047
  Au     10.021687      9.897461      9.840496
  Au      9.653226      9.424532      7.183999
  Au      4.634396      6.765634      7.885856
  Au      7.107644      5.787043      9.079779
  Au      8.432337      6.736152      6.931530
  Au      8.516660      8.516569      4.814747
  Au      5.988774      7.784187      5.738873
  Mn      8.411309      7.956293      9.219905
13
Coordinates from ORCA-job pbe E -2780.676190451160
  Au      7.795342      9.080265     11.495847
  Au      5.637947      8.028386     10.153697
  Au      7.116877     10.407728      6.348806
  Au      5.021548      9.476422      7.805135
  Au      7.298446     10.398219      9.048636
  Au     10.004424      9.946407      9.832311
  Au      9.670208      9.425050      7.188536
  Au      4.630536      6.765438      7.891688
  Au      7.091629      5.771401      9.032443
  Au      8.388250      6.724777      6.902872
  Au      8.527377      8.509966      4.826432
  Au      5.989347      7.775882      5.746945
  Mn      8.401359      7.968663      9.206604
13
Coordinates from ORCA-job pbe E -2780.678118185938
  Au      7.789430      9.113191     11.504233
  Au      5.650564      8.014483     10.166010
  Au      7.138241     10.389134      6.368993
  Au      5.035849      9.464561      7.817667
  Au      7.302274     10.409260      9.064636
  Au      9.997457      9.983368      9.840533
  Au      9.696294      9.427048      7.187242
  Au      4.615464      6.758331      7.901515
  Au      7.077028      5.755073      8.991583
  Au      8.349498      6.712265      6.874226
  Au      8.545964      8.507762      4.823930
  Au      5.983221      7.763067      5.743582
  Mn      8.392005      7.981061      9.195802
13
Coordinates from ORCA-job pbe E -2780.679552456902
  Au      7.787723      9.142172     11.503872
  Au      5.666906      7.998534     10.177262
  Au      7.160799     10.365697      6.389020
  Au      5.051621      9.450181      7.828227
  Au      7.296639     10.426739      9.076534
  Au      9.984897     10.006303      9.838835
  Au      9.717429      9.424736      7.193356
  Au      4.602017      6.756514      7.913131
  Au      7.063929      5.743672      8.962356
  Au      8.318367      6.706801      6.845921
  Au      8.564049      8.511359      4.828982
  Au      5.978552      7.753768      5.740114
  Mn      8.380361      7.992126      9.182342
13
Coordinates from ORCA-job pbe E -2780.680767524254
  Au      7.786714      9.167962     11.503412
  Au      5.684516      7.981190     10.188654
  Au      7.179447     10.342702      6.403273
  Au      5.063707      9.435758      7.837126
  Au      7.284725     10.451350      9.087290
  Au      9.977257     10.017175      9.844671
  Au      9.740410      9.422766      7.197467
  Au      4.587652      6.758058      7.921952
  Au      7.055794      5.737236      8.938197
  Au      8.298770      6.698940      6.827176
  Au      8.580535      8.517540      4.826049
  Au      5.965012      7.744546      5.734596
  Mn      8.368752      8.003380      9.170088
13
Coordinates from ORCA-job pbe E -2780.681873500604
  Au      7.789357      9.188442     11.501597
  Au      5.701792      7.963480     10.201276
  Au      7.200678     10.317619      6.415568
  Au      5.075774      9.424606      7.845142
  Au      7.269674     10.479737      9.098454
  Au      9.966622     10.018956      9.844814
  Au      9.757228      9.417992      7.201561
  Au      4.573331      6.756433      7.930660
  Au      7.048419      5.734527      8.925338
  Au      8.285513      6.701139      6.806403
  Au      8.594376      8.523267      4.828204
  Au      5.956945      7.737187      5.725282
  Mn      8.353581      8.015219      9.155654
13
Coordinates from ORCA-job pbe E -2780.682893837305
  Au      7.788807      9.206734     11.498608
  Au      5.717966      7.946194     10.210279
  Au      7.217787     10.293990      6.429992
  Au      5.087579      9.412854      7.855138
  Au      7.253459     10.508647      9.108366
  Au      9.956272     10.015219      9.845540
  Au      9.778531      9.411343      7.206092
  Au      4.562716      6.759088      7.935518
  Au      7.046194      5.737221      8.911817
  Au      8.279869      6.700115      6.796506
  Au      8.604996      8.528974      4.821335
  Au      5.942097      7.730249      5.719573
  Mn      8.337017      8.027976      9.141189
13
Coordinates from ORCA-job pbe E -2780.683827529866
  Au      7.787349      9.221876     11.497902
  Au      5.730389      7.928600     10.221543
  Au      7.238174     10.268476      6.442854
  Au      5.098756      9.403238      7.865391
  Au      7.237821     10.538249      9.120980
  Au      9.947871     10.009558      9.845231
  Au      9.796460      9.402010      7.204104
  Au      4.552161      6.759015      7.937699
  Au      7.045894      5.741636      8.902630
  Au      8.276336      6.707612      6.785795
  Au      8.612440      8.532292      4.816341
  Au      5.932380      7.723681      5.714050
  Mn      8.317261      8.042359      9.125432
13
Coordinates from ORCA-job pbe E -2780.684690356029
  Au      7.781784      9.236534     11.497198
  Au      5.738013      7.911368     10.232769
  Au      7.257255     10.244916      6.461770
  Au      5.110712      9.395043      7.878523
  Au      7.223411     10.564885      9.132173
  Au      9.940127     10.005976      9.838905
  Au      9.818908      9.388733      7.204023
  Au      4.542163      6.758046      7.938994
  Au      7.047746      5.745675      8.894497
  Au      8.276091      6.716174      6.776874
  Au      8.618835      8.535114      4.805257
  Au      5.922454      7.718457      5.709894
  Mn      8.295790      8.057682      9.109073
13
Coordinates from ORCA-job pbe E -2780.685499927034
  Au      7.773479      9.250542     11.496740
  Au      5.740950      7.894461     10.244461
  Au      7.278513     10.219019      6.478766
  Au      5.122196      9.384514      7.892840
  Au      7.212435     10.589039      9.145764
  Au      9.933023     10.004533      9.835056
  Au      9.840998      9.373673      7.197547
  Au      4.535325      6.759587      7.939135
  Au      7.050527      5.750337      8.883923
  Au      8.276572      6.727809      6.769157
  Au      8.621933      8.537316      4.793970
  Au      5.914606      7.713616      5.710031
  Mn      8.272731      8.074159      9.092562
13
Coordinates from ORCA-job pbe E -2780.686254552326
  Au      7.764296      9.263552     11.496874
  Au      5.739982      7.877937     10.258553
  Au      7.297870     10.195570      6.499793
  Au      5.133978      9.378038      7.907611
  Au      7.202465     10.611840      9.155373
  Au      9.927404     10.004903      9.826956
  Au      9.864781      9.356422      7.194300
  Au      4.527041      6.757173      7.939505
  Au      7.054956      5.752994      8.873236
  Au      8.278263      6.740261      6.761085
  Au      8.625295      8.538727      4.780518
  Au      5.907662      7.709825      5.709603
  Mn      8.249297      8.091361      9.076544
13
Coordinates from ORCA-job pbe E -2780.686952567777
  Au      7.754303      9.275688     11.494959
  Au      5.736638      7.862034     10.272377
  Au      7.318230     10.170971      6.518001
  Au      5.144984      9.368437      7.923428
  Au      7.195843     10.633618      9.165580
  Au      9.919843     10.005739      9.821858
  Au      9.888563      9.339108      7.189426
  Au      4.522492      6.757461      7.941355
  Au      7.057939      5.756469      8.861233
  Au      8.281001      6.753194      6.752455
  Au      8.626805      8.540939      4.766321
  Au      5.901224      7.705767      5.711909
  Mn      8.225424      8.109179      9.061051
13
Coordinates from ORCA-job pbe E -2780.687595966661
  Au      7.744438      9.285720     11.492994
  Au      5.732880      7.846704     10.287170
  Au      7.337109     10.147727      6.535620
  Au      5.156131      9.361662      7.937891
  Au      7.189533     10.656887      9.171709
  Au      9.914634     10.004909      9.816103
  Au      9.909865      9.322967      7.187058
  Au      4.517612      6.755210      7.943284
  Au      7.062710      5.759635      8.848061
  Au      8.283014      6.764534      6.744742
  Au      8.628079      8.543377      4.754162
  Au      5.894976      7.701868      5.714029
  Mn      8.202310      8.127405      9.047130
13
Coordinates from ORCA-job pbe E -2780.688197328472
  Au      7.734695      9.294014     11.488494
  Au      5.729054      7.831755     10.301056
  Au      7.354827     10.125603      6.551599
  Au      5.167390      9.353788      7.953166
  Au      7.185301     10.680707      9.176601
  Au      9.906863     10.003459      9.814265
  Au      9.931146      9.307677      7.184784
  Au      4.514457      6.754025      7.946994
  Au      7.065995      5.763412      8.836942
  Au      8.286454      6.774585      6.735196
  Au      8.629193      8.546083      4.740519
  Au      5.887856      7.697779      5.716476
  Mn      8.180058      8.145715      9.033859
13
Coordinates from ORCA-job pbe E -2780.688761760915
  Au      7.724781      9.299653     11.484389
  Au      5.725311      7.816976     10.314015
  Au      7.371736     10.104681      6.565419
  Au      5.178046      9.346854      7.967028
  Au      7.180994     10.706408      9.179699
  Au      9.903098     10.000067      9.809227
  Au      9.948759      9.295052      7.185812
  Au      4.511162      6.752136      7.949855
  Au      7.071631      5.767769      8.824919
  Au      8.287355      6.781793      6.727464
  Au      8.630399      8.548924      4.731037
  Au      5.881260      7.693588      5.719235
  Mn      8.158758      8.164702      9.021853
13
Coordinates from ORCA-job pbe E -2780.689300987827
  Au      7.716174      9.302533     11.477429
  Au      5.722077      7.802300     10.325847
  Au      7.386933     10.085694      6.578776
  Au      5.190801      9.340781      7.981877
  Au      7.179304     10.731433      9.180109
  Au      9.893709      9.998607      9.811506
  Au      9.966382      9.282895      7.184240
  Au      4.508067      6.750628      7.954174
  Au      7.075705      5.772184      8.816819
  Au      8.289982      6.786227      6.717805
  Au      8.631450      8.551779      4.719981
  Au      5.873845      7.690150      5.722097
  Mn      8.138861      8.183393      9.009293
13
Coordinates from ORCA-job pbe E -2780.689816896746
  Au      7.707865      9.302612     11.471317
  Au      5.717837      7.787376     10.335977
  Au      7.400566     10.068588      6.589785
  Au      5.201283      9.334016      7.996097
  Au      7.176714     10.757905      9.181577
  Au      9.890116      9.995046      9.807512
  Au      9.981080      9.273419      7.186552
  Au      4.504863      6.749598      7.957389
  Au      7.081087      5.778032      8.808955
  Au      8.291162      6.788838      6.709799
  Au      8.633967      8.553519      4.712826
  Au      5.867872      7.686347      5.725333
  Mn      8.118879      8.203306      8.996833
13
Coordinates from ORCA-job pbe E -2780.690318227235
  Au      7.702014      9.299325     11.463524
  Au      5.713555      7.772458     10.344968
  Au      7.412427     10.053700      6.599757
  Au      5.213346      9.328802      8.010464
  Au      7.175953     10.782901      9.181061
  Au      9.883521      9.993675      9.807260
  Au      9.993645      9.265136      7.186575
  Au      4.500828      6.748592      7.960288
  Au      7.085712      5.784074      8.804288
  Au      8.293287      6.787390      6.702462
  Au      8.636613      8.555647      4.707168
  Au      5.862922      7.683664      5.729131
  Mn      8.099464      8.223240      8.983006
13
Coordinates from ORCA-job pbe E -2780.690810252295
  Au      7.697988      9.293097     11.454783
  Au      5.708148      7.757462     10.352825
  Au      7.421226     10.041759      6.608171
  Au      5.224333      9.323560      8.025123
  Au      7.175247     10.807495      9.181017
  Au      9.878978      9.991648      9.805719
  Au     10.004235      9.258335      7.186649
  Au      4.496570      6.748121      7.962272
  Au      7.089512      5.791344      8.802217
  Au      8.296900      6.783895      6.696021
  Au      8.640526      8.556733      4.703755
  Au      5.860218      7.681197      5.733763
  Mn      8.079409      8.243958      8.967637
13
Coordinates from ORCA-job pbe E -2780.691294576945
  Au      7.696437      9.284410     11.445098
  Au      5.701690      7.742509     10.360133
  Au      7.427566     10.032897      6.614970
  Au      5.234939      9.319126      8.039892
  Au      7.174990     10.830535      9.180988
  Au      9.875326      9.989600      9.803411
  Au     10.011745      9.252817      7.185254
  Au      4.491642      6.747941      7.962953
  Au      7.092566      5.799150      8.802458
  Au      8.302322      6.777203      6.691817
  Au      8.645171      8.557976      4.703248
  Au      5.860618      7.679464      5.739285
  Mn      8.058278      8.264976      8.950445
13
Coordinates from ORCA-job pbe E -2780.691766600067
  Au      7.696872      9.273623     11.434839
  Au      5.694047      7.727623     10.367394
  Au      7.430482     10.027870      6.620033
  Au      5.244394      9.315150      8.054928
  Au      7.174644     10.852440      9.181661
  Au      9.873410      9.986256      9.799548
  Au     10.016877      9.248071      7.182487
  Au      4.486874      6.748433      7.962179
  Au      7.094535      5.807726      8.804640
  Au      8.310348      6.768710      6.689772
  Au      8.650442      8.558377      4.705192
  Au      5.864852      7.678040      5.746019
  Mn      8.035515      8.286285      8.931261
13
Coordinates from ORCA-job pbe E -2780.692213314652
  Au      7.699142      9.261655     11.424713
  Au      5.685389      7.712915     10.375428
  Au      7.430849     10.026950      6.623175
  Au      5.252932      9.312123      8.070143
  Au      7.174457     10.872724      9.183027
  Au      9.871999      9.981262      9.793601
  Au     10.019072      9.243713      7.177681
  Au      4.482664      6.749792      7.959684
  Au      7.095761      5.816269      8.808062
  Au      8.321251      6.758519      6.691026
  Au      8.655383      8.558423      4.709249
  Au      5.873573      7.677081      5.753601
  Mn      8.010818      8.307177      8.910561
13
Coordinates from ORCA-job pbe E -2780.692619441284
  Au      7.702378      9.249018     11.415087
  Au      5.676200      7.698529     10.384577
  Au      7.428421     10.030727      6.624252
  Au      5.260589      9.310194      8.085461
  Au      7.174666     10.892128      9.184976
  Au      9.870135      9.973389      9.786059
  Au     10.019151      9.239276      7.171164
  Au      4.480372      6.752368      7.955381
  Au      7.096305      5.824475      8.812409
  Au      8.335541      6.747864      6.695444
  Au      8.658274      8.557306      4.714108
  Au      5.886887      7.676206      5.761797
  Mn      7.984369      8.327125      8.889236
13
Coordinates from ORCA-job pbe E -2780.692976819608
  Au      7.705334      9.236659     11.406037
  Au      5.666699      7.684654     10.394687
  Au      7.424210     10.039530      6.623374
  Au      5.267872      9.309909      8.100660
  Au      7.176165     10.910634      9.187070
  Au      9.867223      9.962195      9.777256
  Au     10.016611      9.234879      7.163142
  Au      4.480628      6.756101      7.949033
  Au      7.096884      5.831380      8.817533
  Au      8.353453      6.736603      6.703512
  Au      8.656507      8.555243      4.719215
  Au      5.904858      7.675549      5.769864
  Mn      7.956845      8.345268      8.868571
13
Coordinates from ORCA-job pbe E -2780.693293607250
  Au      7.706498      9.224803     11.397809
  Au      5.657350      7.671527     10.404794
  Au      7.418117     10.054214      6.620632
  Au      5.274755      9.311648      8.114955
  Au      7.179786     10.928425      9.189008
  Au      9.863676      9.947779      9.768549
  Au     10.011639      9.231101      7.154109
  Au      4.484559      6.761073      7.940342
  Au      7.097557      5.836461      8.823651
  Au      8.374831      6.724625      6.714905
  Au      8.647123      8.551227      4.724005
  Au      5.927461      7.675012      5.777447
  Mn      7.929937      8.360709      8.849745
13
Coordinates from ORCA-job pbe E -2780.693592432650
  Au      7.704861      9.214652     11.390680
  Au      5.648599      7.659499     10.413561
  Au      7.411658     10.074888      6.617274
  Au      5.281424      9.315934      8.127612
  Au      7.186331     10.944402      9.190941
  Au      9.859188      9.932070      9.760467
  Au     10.003846      9.228533      7.144464
  Au      4.492230      6.767237      7.928904
  Au      7.098980      5.838469      8.830255
  Au      8.398640      6.711124      6.729388
  Au      8.627636      8.544492      4.728764
  Au      5.954122      7.675050      5.783798
  Mn      7.905775      8.372252      8.833842
13
Coordinates from ORCA-job pbe E -2780.693883816885
  Au      7.699780      9.207140     11.384834
  Au      5.641367      7.649111     10.419201
  Au      7.405952     10.101413      6.614667
  Au      5.287648      9.322790      8.137702
  Au      7.195900     10.957841      9.193371
  Au      9.853675      9.917373      9.754149
  Au      9.993996      9.227696      7.134718
  Au      4.503694      6.774252      7.914872
  Au      7.100733      5.836601      8.837190
  Au      8.423478      6.695703      6.745460
  Au      8.597137      8.534188      4.733546
  Au      5.983052      7.675644      5.788560
  Mn      7.886876      8.378853      8.821681
13
Coordinates from ORCA-job pbe E -2780.694114622004
  Au      7.691701      9.203957     11.378979
  Au      5.636020      7.640299     10.419935
  Au      7.402909     10.132748      6.615222
  Au      5.293344      9.331752      8.145002
  Au      7.207021     10.967870      9.197348
  Au      9.848330      9.905816      9.748668
  Au      9.982632      9.228509      7.125309
  Au      4.517144      6.781022      7.898730
  Au      7.102575      5.830682      8.844067
  Au      8.447746      6.677611      6.761788
  Au      8.558555      8.521288      4.739718
  Au      6.011226      7.676544      5.792548
  Mn      7.874087      8.380506      8.812640
13
Coordinates from ORCA-job pbe E -2780.694185828953
  Au      7.685225      9.202712     11.370862
  Au      5.631617      7.631663     10.416798
  Au      7.402497     10.166629      6.618005
  Au      5.297402      9.340606      8.150456
  Au      7.215256     10.975621      9.203515
  Au      9.845115      9.897173      9.743484
  Au      9.971611      9.229325      7.115435
  Au      4.528018      6.786454      7.883550
  Au      7.103118      5.824387      8.851252
  Au      8.470855      6.658197      6.776768
  Au      8.524470      8.509226      4.747759
  Au      6.034496      7.675815      5.799509
  Mn      7.863610      8.380796      8.802559
13
Coordinates from ORCA-job pbe E -2780.694214427356
  Au      7.684526      9.204698     11.370169
  Au      5.632460      7.632280     10.414643
  Au      7.405355     10.165823      6.619803
  Au      5.295915      9.339990      8.148379
  Au      7.212317     10.973608      9.205290
  Au      9.847606      9.899883      9.741761
  Au      9.973890      9.228281      7.116349
  Au      4.524147      6.784608      7.886786
  Au      7.103267      5.824156      8.850458
  Au      8.467776      6.659417      6.774150
  Au      8.531788      8.512114      4.747437
  Au      6.028351      7.674042      5.802027
  Mn      7.865893      8.379703      8.802699
13
Coordinates from ORCA-job pbe E -2780.694255076992
  Au      7.686565      9.207035     11.366107
  Au      5.634278      7.631007     10.408976
  Au      7.412030     10.171854      6.622880
  Au      5.295534      9.340808      8.142138
  Au      7.206207     10.971864      9.210478
  Au      9.847423      9.904739      9.740138
  Au      9.976527      9.224416      7.115270
  Au      4.517660      6.782429      7.892626
  Au      7.103048      5.822564      8.849894
  Au      8.465751      6.656960      6.771446
  Au      8.536278      8.515580      4.751015
  Au      6.025955      7.671218      5.810202
  Mn      7.866033      8.378129      8.798781
13
Coordinates from ORCA-job pbe E -2780.694293555369
  Au      7.680684      9.211058     11.361861
  Au      5.636711      7.628822     10.401228
  Au      7.422368     10.188010      6.628614
  Au      5.295269      9.342419      8.129107
  Au      7.197235     10.969974      9.219965
  Au      9.850501      9.908210      9.730772
  Au      9.981152      9.216221      7.113431
  Au      4.509625      6.781522      7.900025
  Au      7.106772      5.817647      8.849387
  Au      8.467157      6.652802      6.770318
  Au      8.532202      8.519086      4.757228
  Au      6.028212      7.668221      5.824907
  Mn      7.865401      8.374612      8.793110
13
Coordinates from ORCA-job pbe E -2780.694325397201
  Au      7.684650      9.210315     11.359270
  Au      5.640094      7.627770     10.396018
  Au      7.431689     10.201831      6.631261
  Au      5.296650      9.343014      8.115312
  Au      7.191265     10.969491      9.224459
  Au      9.843845      9.910645      9.732254
  Au      9.981829      9.211217      7.110762
  Au      4.502516      6.782663      7.908064
  Au      7.107763      5.814353      8.850640
  Au      8.471670      6.648203      6.768087
  Au      8.526338      8.520777      4.759468
  Au      6.032238      7.665606      5.835402
  Mn      7.862744      8.372718      8.788954
13
Coordinates from ORCA-job pbe E -2780.694354747870
  Au      7.683795      9.210169     11.360712
  Au      5.642806      7.628560     10.394357
  Au      7.438917     10.211895      6.633498
  Au      5.299926      9.343422      8.104618
  Au      7.187134     10.969955      9.226467
  Au      9.839880      9.906699      9.730208
  Au      9.981143      9.207919      7.110018
  Au      4.499157      6.784020      7.913084
  Au      7.111205      5.812482      8.848943
  Au      8.477266      6.646450      6.768545
  Au      8.516360      8.521055      4.759923
  Au      6.037616      7.663352      5.841835
  Mn      7.858085      8.372625      8.787744
13
Coordinates from ORCA-job pbe E -2780.694377867168
  Au      7.681557      9.208589     11.366556
  Au      5.646343      7.632610     10.393977
  Au      7.445792     10.221437      6.632993
  Au      5.302739      9.342515      8.092210
  Au      7.183733     10.969884      9.227382
  Au      9.836836      9.899374      9.731001
  Au      9.981529      9.206738      7.109612
  Au      4.496495      6.785347      7.918999
  Au      7.113799      5.812530      8.845769
  Au      8.485338      6.646620      6.768188
  Au      8.504642      8.521122      4.757484
  Au      6.040389      7.658228      5.846861
  Mn      7.854098      8.373610      8.788920
13
Coordinates from ORCA-job pbe E -2780.694386933959
  Au      7.682318      9.209721     11.369569
  Au      5.647674      7.635362     10.393816
  Au      7.449614     10.222881      6.633779
  Au      5.304201      9.341418      8.087424
  Au      7.181463     10.968311      9.228002
  Au      9.836039      9.895764      9.731002
  Au      9.982471      9.206821      7.110517
  Au      4.494578      6.784454      7.922051
  Au      7.113922      5.814382      8.842100
  Au      8.487822      6.647783      6.767334
  Au      8.502134      8.522353      4.756768
  Au      6.038981      7.653976      5.848118
  Mn      7.852073      8.375377      8.789471
13
Coordinates from ORCA-job pbe E -2780.694394499497
  Au      7.683095      9.210532     11.373179
  Au      5.648828      7.639222     10.393341
  Au      7.452656     10.225118      6.633987
  Au      5.304091      9.340234      8.082178
  Au      7.179196     10.965247      9.229669
  Au      9.837040      9.892886      9.732268
  Au      9.984768      9.207565      7.110480
  Au      4.492377      6.782709      7.925200
  Au      7.111893      5.817497      8.838197
  Au      8.490787      6.649001      6.766144
  Au      8.500206      8.523720      4.756653
  Au      6.036316      7.647659      5.849012
  Mn      7.852037      8.377213      8.789644
13
Coordinates from ORCA-job pbe E -2780.694398316039
  Au      7.684573      9.211404     11.374191
  Au      5.649054      7.641254     10.392755
  Au      7.454063     10.226802      6.635365
  Au      5.303512      9.339611      8.079182
  Au      7.177578     10.962645      9.231766
  Au      9.838037      9.892245      9.732159
  Au      9.986059      9.207768      7.109921
  Au      4.490956      6.781661      7.926049
  Au      7.109582      5.819749      8.836225
  Au      8.492490      6.649113      6.766094
  Au      8.499207      8.524666      4.757982
  Au      6.035406      7.643519      5.849467
  Mn      7.852773      8.378167      8.788796
