15
Coordinates from ORCA-job pbe E -3052.344442428190
  Au      6.716705      8.838286      6.222419
  Au      6.100827      4.777140      7.848716
  Au      4.657522      7.183183      7.165014
  Au      5.478871      9.301308      8.791015
  Au      8.685930      5.200631      6.777503
  Au      6.454058      6.101303      5.338206
  Au      8.971546      7.311202      4.933882
  Au      9.401553      9.856651      5.991929
  Au     10.793600      5.874278      8.399218
  Au      8.156036      5.872327      9.557485
  Au     10.061284      8.196707      9.760025
  Au      5.468144      6.616678      9.854056
  Au      7.411221      8.415510     10.704552
  Au      8.226537      9.900614      8.470239
  Mn      9.596658      7.769331      7.325973
15
Coordinates from ORCA-job pbe E -3052.350659407829
  Au      6.717935      8.830581      6.234152
  Au      6.122157      4.797063      7.848835
  Au      4.687142      7.186561      7.167596
  Au      5.502934      9.289882      8.778980
  Au      8.675845      5.201783      6.783039
  Au      6.459085      6.107333      5.351994
  Au      8.944822      7.307472      4.908651
  Au      9.378571      9.882602      5.975292
  Au     10.791396      5.843404      8.422323
  Au      8.148835      5.878770      9.547192
  Au     10.050334      8.193324      9.795209
  Au      5.492115      6.623403      9.837574
  Au      7.410878      8.410688     10.689779
  Au      8.216102      9.895718      8.469940
  Mn      9.582340      7.766563      7.329675
15
Coordinates from ORCA-job pbe E -3052.355039984990
  Au      6.724123      8.828575      6.237988
  Au      6.138394      4.801019      7.846169
  Au      4.698318      7.186446      7.165035
  Au      5.518766      9.291798      8.773177
  Au      8.678839      5.197095      6.782841
  Au      6.463048      6.106841      5.350123
  Au      8.919591      7.310767      4.865872
  Au      9.346068      9.915982      5.946023
  Au     10.790217      5.803485      8.460344
  Au      8.151365      5.882340      9.540977
  Au     10.051290      8.185444      9.844386
  Au      5.502362      6.627489      9.834616
  Au      7.414773      8.413122     10.689836
  Au      8.216924      9.901287      8.469029
  Mn      9.566416      7.763455      7.333816
15
Coordinates from ORCA-job pbe E -3052.357726402829
  Au      6.736329      8.820453      6.247359
  Au      6.157314      4.811678      7.843396
  Au      4.715858      7.186510      7.164609
  Au      5.539182      9.288429      8.765581
  Au      8.685190      5.202435      6.780630
  Au      6.472583      6.108595      5.357759
  Au      8.894504      7.320009      4.842969
  Au      9.305701      9.926722      5.928449
  Au     10.769627      5.780843      8.493977
  Au      8.154013      5.893274      9.527663
  Au     10.044981      8.170270      9.875388
  Au      5.516879      6.633508      9.826724
  Au      7.419432      8.414545     10.678607
  Au      8.224897      9.898764      8.467432
  Mn      9.544003      7.759113      7.339689
15
Coordinates from ORCA-job pbe E -3052.359667458081
  Au      6.748773      8.813372      6.253721
  Au      6.168292      4.812119      7.841403
  Au      4.718766      7.184678      7.162115
  Au      5.549195      9.291769      8.761979
  Au      8.697911      5.202133      6.769015
  Au      6.477293      6.101754      5.358281
  Au      8.875820      7.334037      4.814117
  Au      9.273842      9.938823      5.905394
  Au     10.758982      5.760314      8.528296
  Au      8.158611      5.903639      9.516740
  Au     10.048290      8.153381      9.908093
  Au      5.519972      6.636384      9.827702
  Au      7.420563      8.422984     10.676689
  Au      8.240536      9.904587      8.471669
  Mn      9.523647      7.755176      7.345017
15
Coordinates from ORCA-job pbe E -3052.361169948054
  Au      6.761545      8.801214      6.264337
  Au      6.178729      4.815705      7.841878
  Au      4.723624      7.183623      7.160534
  Au      5.558735      9.291852      8.756153
  Au      8.711977      5.205230      6.754996
  Au      6.482630      6.093862      5.364499
  Au      8.857078      7.349602      4.797411
  Au      9.249228      9.941466      5.890818
  Au     10.747175      5.750518      8.552525
  Au      8.159650      5.918516      9.502459
  Au     10.046230      8.133803      9.930047
  Au      5.524494      6.639234      9.826839
  Au      7.419180      8.431998     10.669539
  Au      8.259654      9.907801      8.477147
  Mn      9.500565      7.750725      7.351050
15
Coordinates from ORCA-job pbe E -3052.362449223766
  Au      6.772572      8.788405      6.275772
  Au      6.186066      4.815024      7.844190
  Au      4.721938      7.182119      7.158041
  Au      5.563312      9.294767      8.750617
  Au      8.728099      5.205545      6.738687
  Au      6.485205      6.081380      5.368879
  Au      8.841397      7.364986      4.782939
  Au      9.237115      9.944110      5.880323
  Au     10.743493      5.744767      8.567185
  Au      8.158687      5.933315      9.488302
  Au     10.045548      8.115127      9.948629
  Au      5.523982      6.640378      9.829866
  Au      7.414841      8.444412     10.665814
  Au      8.280516      9.914500      8.483989
  Mn      9.477721      7.746313      7.356997
15
Coordinates from ORCA-job pbe E -3052.363598929026
  Au      6.783350      8.773888      6.289512
  Au      6.192421      4.814397      7.847388
  Au      4.719655      7.180556      7.155672
  Au      5.566663      9.297305      8.744863
  Au      8.743972      5.204752      6.722468
  Au      6.487263      6.067622      5.374309
  Au      8.826809      7.378087      4.774810
  Au      9.234275      9.943576      5.877198
  Au     10.742686      5.744616      8.571279
  Au      8.155847      5.949429      9.472411
  Au     10.041904      8.098335      9.961391
  Au      5.522935      6.641475      9.833047
  Au      7.409186      8.457611     10.661519
  Au      8.300631      9.921988      8.490923
  Mn      9.452897      7.741513      7.363443
15
Coordinates from ORCA-job pbe E -3052.364637648176
  Au      6.794029      8.759288      6.304260
  Au      6.197226      4.812468      7.850875
  Au      4.716132      7.178879      7.153006
  Au      5.568041      9.300578      8.739810
  Au      8.758876      5.200685      6.706421
  Au      6.488151      6.052645      5.378634
  Au      8.815085      7.388190      4.769702
  Au      9.239045      9.941482      5.879927
  Au     10.744646      5.748017      8.566804
  Au      8.152429      5.965454      9.455676
  Au     10.038226      8.085128      9.970491
  Au      5.520935      6.642338      9.837039
  Au      7.402709      8.471565     10.658938
  Au      8.318612      9.932060      8.498334
  Mn      9.426353      7.736372      7.370314
15
Coordinates from ORCA-job pbe E -3052.365548224934
  Au      6.805017      8.744681      6.319453
  Au      6.201052      4.810351      7.854140
  Au      4.713715      7.177467      7.150099
  Au      5.568644      9.303712      8.735540
  Au      8.771743      5.193428      6.690732
  Au      6.488858      6.038130      5.381883
  Au      8.805626      7.395008      4.766898
  Au      9.247959      9.937404      5.887313
  Au     10.746949      5.754275      8.556566
  Au      8.149049      5.981565      9.438419
  Au     10.034192      8.075710      9.976869
  Au      5.520041      6.643446      9.840661
  Au      7.396840      8.485024     10.657288
  Au      8.333530      9.944189      8.506540
  Mn      9.397276      7.730758      7.377831
15
Coordinates from ORCA-job pbe E -3052.366315193415
  Au      6.816182      8.730766      6.334067
  Au      6.204059      4.807969      7.856909
  Au      4.712695      7.176367      7.146938
  Au      5.568678      9.306806      8.732137
  Au      8.782434      5.183196      6.675658
  Au      6.489524      6.024711      5.383595
  Au      8.798535      7.399277      4.764215
  Au      9.258259      9.932360      5.896992
  Au     10.748812      5.761680      8.543840
  Au      8.146353      5.997092      9.421503
  Au     10.031365      8.069628      9.982288
  Au      5.520393      6.644753      9.843745
  Au      7.392092      8.497541     10.656991
  Au      8.345353      9.958295      8.515382
  Mn      9.365759      7.724707      7.385969
15
Coordinates from ORCA-job pbe E -3052.366928070900
  Au      6.827351      8.717805      6.347498
  Au      6.206491      4.805657      7.859084
  Au      4.713272      7.175619      7.143695
  Au      5.568767      9.309524      8.729523
  Au      8.791189      5.171271      6.661591
  Au      6.490694      6.013120      5.383978
  Au      8.793242      7.401743      4.761169
  Au      9.268115      9.926668      5.907397
  Au     10.749658      5.769515      8.530835
  Au      8.144544      6.011868      9.405575
  Au     10.029506      8.065985      9.987353
  Au      5.522209      6.646296      9.846070
  Au      7.389108      8.508555     10.657321
  Au      8.354606      9.973296      8.524386
  Mn      9.331741      7.718225      7.394757
15
Coordinates from ORCA-job pbe E -3052.367375438863
  Au      6.837872      8.706279      6.359187
  Au      6.208348      4.803483      7.860734
  Au      4.714927      7.175107      7.140456
  Au      5.568823      9.311805      8.727497
  Au      8.798385      5.158699      6.649019
  Au      6.492392      6.003439      5.383518
  Au      8.789863      7.403118      4.757482
  Au      9.277197      9.920851      5.917671
  Au     10.749915      5.777254      8.518288
  Au      8.143561      6.025135      9.391342
  Au     10.029352      8.064098      9.992143
  Au      5.524773      6.647858      9.847733
  Au      7.387616      8.518035     10.658104
  Au      8.361936      9.988634      8.532943
  Mn      9.295534      7.711353      7.404113
15
Coordinates from ORCA-job pbe E -3052.367649218644
  Au      6.846983      8.696876      6.368386
  Au      6.209627      4.801429      7.862146
  Au      4.717024      7.174866      7.137269
  Au      5.569128      9.313504      8.725924
  Au      8.804450      5.146359      6.638275
  Au      6.494904      5.995847      5.382434
  Au      8.788389      7.403901      4.753727
  Au      9.285692      9.914915      5.927730
  Au     10.749878      5.785100      8.506226
  Au      8.143292      6.036293      9.379898
  Au     10.030192      8.063396      9.996121
  Au      5.527911      6.649339      9.849055
  Au      7.387909      8.525758     10.658446
  Au      8.367805     10.003441      8.540574
  Mn      9.257309      7.704123      7.414019
15
Coordinates from ORCA-job pbe E -3052.367770276937
  Au      6.851798      8.692155      6.372274
  Au      6.210341      4.800167      7.863095
  Au      4.719138      7.174802      7.134456
  Au      5.569354      9.314346      8.724717
  Au      8.808167      5.136875      6.631707
  Au      6.497927      5.991637      5.381833
  Au      8.789107      7.404221      4.751040
  Au      9.292664      9.910240      5.935975
  Au     10.750099      5.791437      8.496098
  Au      8.143720      6.041807      9.374653
  Au     10.032734      8.063729      9.998050
  Au      5.530428      6.650297      9.849832
  Au      7.389390      8.530571     10.658310
  Au      8.371266     10.014998      8.545630
  Mn      9.224359      7.697865      7.422563
15
Coordinates from ORCA-job pbe E -3052.367867891122
  Au      6.851077      8.694025      6.369393
  Au      6.210711      4.799678      7.863676
  Au      4.720508      7.174970      7.132897
  Au      5.570291      9.314265      8.724135
  Au      8.808896      5.132159      6.630586
  Au      6.500681      5.991504      5.381310
  Au      8.791695      7.404215      4.750347
  Au      9.296592      9.908047      5.940854
  Au     10.750305      5.794853      8.490208
  Au      8.145000      6.040308      9.377600
  Au     10.034713      8.064765      9.997384
  Au      5.532502      6.650871      9.850124
  Au      7.392123      8.531291     10.656866
  Au      8.371221     10.020152      8.547006
  Mn      9.204178      7.694044      7.427845
15
Coordinates from ORCA-job pbe E -3052.368131352082
  Au      6.843289      8.705635      6.354724
  Au      6.212495      4.800745      7.863841
  Au      4.724413      7.175723      7.130760
  Au      5.573291      9.313019      8.722739
  Au      8.806949      5.127088      6.634313
  Au      6.506941      5.996311      5.381888
  Au      8.798467      7.403999      4.751838
  Au      9.300950      9.905356      5.947290
  Au     10.750070      5.798990      8.482333
  Au      8.149414      6.027896      9.393318
  Au     10.040086      8.067400      9.992642
  Au      5.536195      6.651256      9.848981
  Au      7.398808      8.528471     10.653189
  Au      8.367659     10.025468      8.545957
  Mn      9.171467      7.687792      7.436418
15
Coordinates from ORCA-job pbe E -3052.368391578928
  Au      6.831911      8.723480      6.334452
  Au      6.216229      4.803239      7.863123
  Au      4.728674      7.177187      7.131019
  Au      5.579293      9.311090      8.721441
  Au      8.803959      5.125078      6.640673
  Au      6.512135      6.003873      5.382740
  Au      8.805493      7.404371      4.756173
  Au      9.300701      9.903750      5.949406
  Au     10.748286      5.800983      8.480595
  Au      8.155433      6.009676      9.415400
  Au     10.042914      8.069456      9.985417
  Au      5.540601      6.651442      9.846132
  Au      7.405643      8.522464     10.648045
  Au      8.362401     10.025951      8.542621
  Mn      9.146819      7.683108      7.442996
15
Coordinates from ORCA-job pbe E -3052.368570004948
  Au      6.821471      8.739673      6.315751
  Au      6.222334      4.806662      7.860906
  Au      4.734707      7.178989      7.131125
  Au      5.585374      9.310327      8.719396
  Au      8.802958      5.121612      6.643304
  Au      6.516778      6.010147      5.384629
  Au      8.809818      7.403999      4.761467
  Au      9.298989      9.900756      5.950050
  Au     10.745427      5.803205      8.480399
  Au      8.161391      5.991603      9.434928
  Au     10.046627      8.071262      9.978447
  Au      5.544225      6.650878      9.842136
  Au      7.410247      8.518395     10.646082
  Au      8.360533     10.029804      8.541467
  Mn      9.119615      7.677835      7.450144
15
Coordinates from ORCA-job pbe E -3052.368696197326
  Au      6.812631      8.754651      6.300821
  Au      6.228715      4.808056      7.859851
  Au      4.739104      7.181114      7.131961
  Au      5.593587      9.310540      8.717868
  Au      8.806222      5.115421      6.640855
  Au      6.519412      6.012974      5.383094
  Au      8.814973      7.403586      4.765455
  Au      9.296806      9.897284      5.951992
  Au     10.741374      5.806315      8.480644
  Au      8.165802      5.977394      9.451430
  Au     10.045678      8.073474      9.972842
  Au      5.550464      6.651586      9.839620
  Au      7.414845      8.515916     10.642883
  Au      8.361586     10.034785      8.542630
  Mn      9.089296      7.672050      7.458286
15
Coordinates from ORCA-job pbe E -3052.368795671758
  Au      6.804630      8.765292      6.289019
  Au      6.236979      4.810177      7.857117
  Au      4.745653      7.182297      7.130156
  Au      5.599714      9.312663      8.715271
  Au      8.810810      5.109819      6.635049
  Au      6.523149      6.014216      5.383689
  Au      8.816289      7.401073      4.770310
  Au      9.293999      9.893151      5.954575
  Au     10.736510      5.808688      8.479420
  Au      8.169114      5.964420      9.463758
  Au     10.047419      8.075904      9.967722
  Au      5.554598      6.652128      9.837252
  Au      7.417202      8.516781     10.644056
  Au      8.366879     10.042790      8.546223
  Mn      9.057548      7.665752      7.466615
15
Coordinates from ORCA-job pbe E -3052.368873852295
  Au      6.797380      8.774844      6.279811
  Au      6.245129      4.810827      7.856428
  Au      4.750580      7.182683      7.129143
  Au      5.607459      9.315320      8.712817
  Au      8.818328      5.103932      6.625301
  Au      6.524776      6.011838      5.381572
  Au      8.819357      7.399287      4.773872
  Au      9.290605      9.889928      5.958950
  Au     10.730877      5.810376      8.477868
  Au      8.170604      5.954795      9.474366
  Au     10.045255      8.078391      9.963563
  Au      5.560902      6.654812      9.836391
  Au      7.418943      8.519192     10.643652
  Au      8.374384     10.049455      8.551478
  Mn      9.025913      7.659467      7.475020
15
Coordinates from ORCA-job pbe E -3052.368926307902
  Au      6.790295      8.781639      6.270752
  Au      6.254128      4.811834      7.855959
  Au      4.756427      7.182144      7.126653
  Au      5.613908      9.318789      8.708795
  Au      8.826191      5.100351      6.614123
  Au      6.527097      6.008721      5.379795
  Au      8.820087      7.397474      4.777997
  Au      9.286087      9.887187      5.963859
  Au     10.724717      5.810643      8.475562
  Au      8.172316      5.946589      9.484576
  Au     10.044056      8.079554      9.959637
  Au      5.565819      6.658188      9.835875
  Au      7.420056      8.523450     10.645611
  Au      8.383914     10.055407      8.557943
  Mn      8.995394      7.653178      7.483093
15
Coordinates from ORCA-job pbe E -3052.368959101506
  Au      6.783249      8.787658      6.260003
  Au      6.263179      4.813468      7.857140
  Au      4.762042      7.180470      7.125102
  Au      5.620507      9.321535      8.704320
  Au      8.832988      5.098378      6.602911
  Au      6.528477      6.004252      5.377888
  Au      8.821858      7.398302      4.780979
  Au      9.281423      9.885840      5.968832
  Au     10.718591      5.809475      8.473188
  Au      8.173702      5.939712      9.496548
  Au     10.043153      8.078701      9.956251
  Au      5.571174      6.662338      9.835045
  Au      7.420038      8.527949     10.647354
  Au      8.393201     10.059708      8.564200
  Mn      8.966912      7.647363      7.490473
15
Coordinates from ORCA-job pbe E -3052.368984546528
  Au      6.776002      8.791516      6.247553
  Au      6.272584      4.814793      7.858829
  Au      4.767587      7.178911      7.123076
  Au      5.627269      9.324237      8.698054
  Au      8.839598      5.098032      6.592281
  Au      6.530126      6.000169      5.374691
  Au      8.821207      7.400347      4.783759
  Au      9.275978      9.885678      5.974400
  Au     10.712632      5.806898      8.470309
  Au      8.176447      5.934671      9.510808
  Au     10.041819      8.075642      9.954083
  Au      5.575475      6.666881      9.834430
  Au      7.421037      8.533503     10.649982
  Au      8.402080     10.062063      8.570516
  Mn      8.940652      7.641806      7.497460
15
Coordinates from ORCA-job pbe E -3052.369012360772
  Au      6.769969      8.792518      6.233278
  Au      6.283098      4.817340      7.861932
  Au      4.772809      7.175591      7.122124
  Au      5.634264      9.326196      8.691409
  Au      8.843878      5.099159      6.581742
  Au      6.530696      5.993785      5.371818
  Au      8.820123      7.405243      4.784506
  Au      9.272071      9.887372      5.980856
  Au     10.706853      5.802746      8.465634
  Au      8.178310      5.932850      9.526259
  Au     10.040831      8.069884      9.953868
  Au      5.579982      6.671701      9.833281
  Au      7.419951      8.539763     10.653527
  Au      8.410607     10.063897      8.576610
  Mn      8.917051      7.637102      7.503389
15
Coordinates from ORCA-job pbe E -3052.369044497096
  Au      6.764612      8.789363      6.217508
  Au      6.294754      4.819859      7.865363
  Au      4.777591      7.172600      7.121233
  Au      5.642724      9.327506      8.682132
  Au      8.847228      5.101207      6.571590
  Au      6.529382      5.987002      5.367030
  Au      8.815419      7.411652      4.783885
  Au      9.268817      9.890254      5.989018
  Au     10.702165      5.797906      8.459098
  Au      8.181909      5.935029      9.543990
  Au     10.039148      8.061412      9.956604
  Au      5.582950      6.676955      9.832012
  Au      7.418536      8.547790     10.658618
  Au      8.417791     10.063591      8.583527
  Mn      8.897466      7.633023      7.508622
15
Coordinates from ORCA-job pbe E -3052.369070269301
  Au      6.760534      8.785299      6.200061
  Au      6.309059      4.824058      7.868842
  Au      4.781650      7.169500      7.121723
  Au      5.653041      9.328222      8.672978
  Au      8.848773      5.103378      6.560867
  Au      6.526632      5.979647      5.361683
  Au      8.810016      7.418060      4.782222
  Au      9.266554      9.891774      5.996908
  Au     10.696029      5.794562      8.452681
  Au      8.184756      5.938433      9.562063
  Au     10.036622      8.053070      9.960758
  Au      5.586561      6.680672      9.830074
  Au      7.415888      8.554633     10.665459
  Au      8.425193     10.064155      8.590709
  Mn      8.879187      7.629682      7.513204
15
Coordinates from ORCA-job pbe E -3052.369093665093
  Au      6.754871      8.782167      6.183533
  Au      6.323875      4.828849      7.870068
  Au      4.785818      7.167939      7.122200
  Au      5.665678      9.328192      8.663529
  Au      8.851894      5.104171      6.548958
  Au      6.521814      5.973406      5.355927
  Au      8.805372      7.421809      4.780777
  Au      9.263222      9.890848      6.004701
  Au     10.689491      5.793814      8.447483
  Au      8.187988      5.940091      9.580295
  Au     10.035109      8.047656      9.964574
  Au      5.589305      6.684147      9.827765
  Au      7.412846      8.561089     10.672563
  Au      8.433159     10.065004      8.599416
  Mn      8.860051      7.625965      7.518443
15
Coordinates from ORCA-job pbe E -3052.369130287172
  Au      6.749185      8.778998      6.166210
  Au      6.341018      4.835442      7.869640
  Au      4.788329      7.166469      7.123020
  Au      5.681305      9.327532      8.654884
  Au      8.854980      5.104947      6.534702
  Au      6.515381      5.967900      5.348307
  Au      8.800585      7.421988      4.778527
  Au      9.260185      9.886198      6.011956
  Au     10.680990      5.796979      8.443282
  Au      8.189881      5.941335      9.598583
  Au     10.032517      8.046022      9.969644
  Au      5.591826      6.686165      9.826170
  Au      7.409746      8.565408     10.682192
  Au      8.443192     10.066994      8.609665
  Mn      8.841373      7.622772      7.523449
15
Coordinates from ORCA-job pbe E -3052.369180167307
  Au      6.742112      8.775368      6.150773
  Au      6.358733      4.845037      7.866305
  Au      4.789315      7.165067      7.123374
  Au      5.700777      9.324273      8.646768
  Au      8.860037      5.105314      6.517743
  Au      6.506543      5.964070      5.339567
  Au      8.797152      7.417210      4.775041
  Au      9.256403      9.875601      6.019713
  Au     10.670117      5.806247      8.439826
  Au      8.190330      5.941814      9.615581
  Au     10.030913      8.049821      9.975746
  Au      5.592622      6.688131      9.825519
  Au      7.406694      8.567395     10.693003
  Au      8.455901     10.070042      8.622419
  Mn      8.822844      7.619757      7.528853
15
Coordinates from ORCA-job pbe E -3052.369220555787
  Au      6.735335      8.772053      6.134451
  Au      6.374081      4.853733      7.865944
  Au      4.790467      7.161651      7.122510
  Au      5.716703      9.321797      8.638886
  Au      8.865325      5.107541      6.502533
  Au      6.502706      5.959394      5.332037
  Au      8.794100      7.415423      4.772108
  Au      9.251825      9.868649      6.028593
  Au     10.659366      5.811074      8.434359
  Au      8.190594      5.942682      9.632875
  Au     10.029063      8.050456      9.980762
  Au      5.593875      6.691618      9.826156
  Au      7.405851      8.570405     10.701379
  Au      8.468903     10.072307      8.633217
  Mn      8.802301      7.616365      7.534420
15
Coordinates from ORCA-job pbe E -3052.369270408995
  Au      6.726646      8.769066      6.118675
  Au      6.386503      4.864056      7.866210
  Au      4.790640      7.156316      7.119694
  Au      5.731782      9.317274      8.631353
  Au      8.872001      5.110314      6.486716
  Au      6.501553      5.955423      5.325446
  Au      8.792702      7.414509      4.767423
  Au      9.245624      9.860987      6.036673
  Au     10.648718      5.816504      8.430092
  Au      8.189707      5.942810      9.650063
  Au     10.029676      8.050589      9.986224
  Au      5.593710      6.696954      9.828884
  Au      7.406944      8.572454     10.707668
  Au      8.483831     10.075123      8.644637
  Mn      8.780457      7.612769      7.540474
15
Coordinates from ORCA-job pbe E -3052.369327179898
  Au      6.717219      8.766051      6.102212
  Au      6.397517      4.874575      7.868251
  Au      4.790803      7.149948      7.116122
  Au      5.745560      9.312072      8.623039
  Au      8.879161      5.114213      6.472442
  Au      6.503202      5.951364      5.319939
  Au      8.790868      7.416913      4.762036
  Au      9.238166      9.855292      6.044507
  Au     10.638445      5.819463      8.426109
  Au      8.188663      5.943130      9.667863
  Au     10.031378      8.047561      9.992039
  Au      5.593101      6.703205      9.832177
  Au      7.409528      8.575141     10.711797
  Au      8.499031     10.077219      8.654898
  Mn      8.757852      7.608999      7.546802
15
Coordinates from ORCA-job pbe E -3052.369394780810
  Au      6.706057      8.763311      6.084671
  Au      6.407007      4.885352      7.871657
  Au      4.790728      7.142505      7.111679
  Au      5.758464      9.305794      8.613782
  Au      8.887086      5.119298      6.459311
  Au      6.507562      5.946940      5.315914
  Au      8.788106      7.423765      4.754804
  Au      9.228603      9.852370      6.050531
  Au     10.629333      5.819466      8.425045
  Au      8.187373      5.943326      9.686720
  Au     10.035152      8.040183      9.999005
  Au      5.591619      6.710531      9.836219
  Au      7.413484      8.578687     10.713245
  Au      8.515127     10.078514      8.664234
  Mn      8.734792      7.605105      7.553413
15
Coordinates from ORCA-job pbe E -3052.369464901039
  Au      6.695159      8.760405      6.066715
  Au      6.417759      4.895616      7.874966
  Au      4.791440      7.136081      7.108081
  Au      5.772082      9.300030      8.603928
  Au      8.895505      5.124872      6.446478
  Au      6.510847      5.942173      5.312029
  Au      8.784136      7.431076      4.748161
  Au      9.218885      9.850159      6.056135
  Au     10.620137      5.818259      8.424217
  Au      8.186172      5.943801      9.705869
  Au     10.038084      8.032484     10.006097
  Au      5.590774      6.716886      9.839127
  Au      7.416500      8.582894     10.715122
  Au      8.531360     10.079231      8.673210
  Mn      8.711651      7.601180      7.560095
15
Coordinates from ORCA-job pbe E -3052.369545685997
  Au      6.684190      8.756844      6.046530
  Au      6.431794      4.906565      7.876669
  Au      4.792388      7.129850      7.105186
  Au      5.788350      9.295014      8.594153
  Au      8.903849      5.129992      6.429612
  Au      6.510514      5.936563      5.305755
  Au      8.780443      7.434227      4.742392
  Au      9.209645      9.846156      6.064092
  Au     10.608609      5.819012      8.421706
  Au      8.185689      5.944492      9.727495
  Au     10.038876      8.028113     10.013034
  Au      5.590774      6.723324      9.841732
  Au      7.417469      8.586905     10.720850
  Au      8.548938     10.080650      8.684525
  Mn      8.688964      7.597441      7.566501
15
Coordinates from ORCA-job pbe E -3052.369645821002
  Au      6.672873      8.755604      6.020805
  Au      6.457068      4.909367      7.871806
  Au      4.802395      7.134999      7.111175
  Au      5.809841      9.297254      8.584900
  Au      8.916923      5.135952      6.409362
  Au      6.497043      5.925680      5.300354
  Au      8.768319      7.438189      4.742892
  Au      9.189221      9.855865      6.064534
  Au     10.590290      5.800682      8.437098
  Au      8.188879      5.944478      9.753919
  Au     10.032375      8.022676     10.017120
  Au      5.599780      6.721257      9.833235
  Au      7.406679      8.597342     10.732158
  Au      8.568269     10.079406      8.692026
  Mn      8.680538      7.596397      7.568848
15
Coordinates from ORCA-job pbe E -3052.369758691412
  Au      6.664239      8.755199      6.005127
  Au      6.470497      4.917801      7.872095
  Au      4.806845      7.133811      7.110296
  Au      5.825010      9.293262      8.576966
  Au      8.925234      5.138139      6.396672
  Au      6.497568      5.921073      5.297404
  Au      8.764040      7.441887      4.740489
  Au      9.179464      9.852616      6.069850
  Au     10.578831      5.799512      8.438101
  Au      8.188707      5.943079      9.770531
  Au     10.032704      8.019529     10.020407
  Au      5.603032      6.723658      9.831660
  Au      7.407310      8.602035     10.734515
  Au      8.582047     10.081555      8.700297
  Mn      8.654966      7.591989      7.575822
15
Coordinates from ORCA-job pbe E -3052.369844200252
  Au      6.655061      8.749602      5.989718
  Au      6.486320      4.930908      7.874410
  Au      4.812579      7.131157      7.109870
  Au      5.843646      9.286111      8.566133
  Au      8.935510      5.144064      6.379324
  Au      6.497300      5.914993      5.294650
  Au      8.757167      7.447514      4.735899
  Au      9.165230      9.847295      6.075658
  Au     10.564171      5.797855      8.439038
  Au      8.185759      5.945245      9.787502
  Au     10.032870      8.014797     10.027086
  Au      5.606054      6.727670      9.829023
  Au      7.406007      8.609020     10.736472
  Au      8.600696     10.080968      8.713067
  Mn      8.632124      7.587947      7.582382
15
Coordinates from ORCA-job pbe E -3052.369882193361
  Au      6.659327      8.757345      5.995862
  Au      6.478225      4.920936      7.873624
  Au      4.805429      7.131293      7.108756
  Au      5.833017      9.292816      8.570703
  Au      8.926180      5.136608      6.393642
  Au      6.500017      5.917964      5.295278
  Au      8.764308      7.443104      4.738524
  Au      9.184910      9.849190      6.077095
  Au     10.580603      5.803719      8.426160
  Au      8.187942      5.941596      9.782103
  Au     10.033981      8.018529     10.021390
  Au      5.600693      6.724803      9.832978
  Au      7.409570      8.603935     10.736759
  Au      8.585679     10.085438      8.705494
  Mn      8.630613      7.587873      7.581860
15
Coordinates from ORCA-job pbe E -3052.369894420798
  Au      6.659547      8.754922      5.996590
  Au      6.482178      4.923126      7.873607
  Au      4.806802      7.131051      7.110051
  Au      5.837250      9.291426      8.568622
  Au      8.926157      5.136949      6.390588
  Au      6.499144      5.917370      5.295768
  Au      8.762274      7.445203      4.737660
  Au      9.181282      9.848232      6.075999
  Au     10.576854      5.803729      8.430852
  Au      8.187531      5.944206      9.781156
  Au     10.033992      8.016012     10.022280
  Au      5.600963      6.725250      9.831308
  Au      7.408794      8.604356     10.736272
  Au      8.586964     10.085212      8.707797
  Mn      8.630760      7.588104      7.581682
15
Coordinates from ORCA-job pbe E -3052.369897720600
  Au      6.660034      8.755353      5.996836
  Au      6.482495      4.922812      7.873659
  Au      4.806577      7.130950      7.110319
  Au      5.837420      9.291677      8.569067
  Au      8.925234      5.136331      6.392083
  Au      6.498809      5.918603      5.295393
  Au      8.763188      7.444428      4.738271
  Au      9.183081      9.847189      6.076400
  Au     10.577635      5.804828      8.428910
  Au      8.187498      5.944282      9.781327
  Au     10.034151      8.017031     10.021049
  Au      5.600234      6.724961      9.831214
  Au      7.408562      8.603305     10.736737
  Au      8.585248     10.085335      8.707475
  Mn      8.630327      7.588063      7.581491
15
Coordinates from ORCA-job pbe E -3052.369900158348
  Au      6.660335      8.755551      5.997116
  Au      6.483308      4.922548      7.873563
  Au      4.806663      7.130805      7.111022
  Au      5.837835      9.291813      8.569310
  Au      8.924034      5.135554      6.392931
  Au      6.498302      5.919715      5.295060
  Au      8.764176      7.443804      4.738932
  Au      9.184835      9.846622      6.076790
  Au     10.578068      5.805516      8.427982
  Au      8.187450      5.945035      9.781622
  Au     10.034161      8.017811     10.019368
  Au      5.599389      6.724497      9.830822
  Au      7.408497      8.602180     10.737484
  Au      8.583563     10.085586      8.707140
  Mn      8.629877      7.588111      7.581091
