13
E=  -1382.47123447;c=0;m=3
Au      6.514058322927420      6.378364987871120      6.873381259614270
Au     11.610789126442841      8.732925507915700      9.969109478702441
Au     10.517752212273740      9.380067099007601      7.451700317515630
Au      9.303453741006560      5.724161100424290      6.448149356058570
Au      8.327341098676399      8.410484069138850      6.096566464169060
Au     11.451021227439851      6.644582604323350      8.076654808510961
Au      9.728869714716430      6.798449391291560     10.795652849310150
Au      8.903935149590181      9.524315120414171      9.998009349046820
Au      7.428994187402680      3.835210078036850      7.596910865543620
Au      9.743976686726119      4.581497577354290      9.021235073598280
Au      6.694190356257800      8.556529884554561      8.674688370304381
Au      7.291844480758130      5.903576484130310      9.622193465192231
Fe      9.036679255782760      7.499134005537350      8.408181102432851
