13
Coordinates from ORCA-job pbe E -2893.382886275030
  Au      6.514058      6.378365      6.873381
  Au     11.610789      8.732926      9.969109
  Au     10.517752      9.380067      7.451700
  Au      9.303454      5.724161      6.448149
  Au      8.327341      8.410484      6.096566
  Au     11.451021      6.644583      8.076655
  Au      9.728870      6.798449     10.795653
  Au      8.903935      9.524315      9.998009
  Au      7.428994      3.835210      7.596911
  Au      9.743977      4.581498      9.021235
  Au      6.694190      8.556530      8.674688
  Au      7.291844      5.903576      9.622193
  Fe      9.036679      7.499134      8.408181
13
Coordinates from ORCA-job pbe E -2893.384023422961
  Au      6.535011      6.385259      6.886457
  Au     11.597822      8.701564      9.963295
  Au     10.503855      9.381357      7.454448
  Au      9.298509      5.730290      6.468436
  Au      8.321470      8.397105      6.098347
  Au     11.442305      6.634211      8.084879
  Au      9.731490      6.786346     10.784738
  Au      8.901197      9.524686      9.984219
  Au      7.454584      3.881735      7.610614
  Au      9.732359      4.607212      9.012016
  Au      6.692511      8.542847      8.669171
  Au      7.308751      5.907952      9.609370
  Fe      9.033042      7.488734      8.406443
13
Coordinates from ORCA-job pbe E -2893.384694138665
  Au      6.529557      6.400325      6.882446
  Au     11.594241      8.678937      9.963257
  Au     10.487561      9.394636      7.460312
  Au      9.301862      5.729355      6.469081
  Au      8.319026      8.397184      6.093810
  Au     11.451135      6.630128      8.096635
  Au      9.745118      6.780847     10.787640
  Au      8.900758      9.536625      9.965745
  Au      7.451838      3.876101      7.609402
  Au      9.740780      4.613350      9.016288
  Au      6.687514      8.543420      8.668250
  Au      7.311205      5.907342      9.613209
  Fe      9.032310      7.481046      8.406357
13
Coordinates from ORCA-job pbe E -2893.385405732671
  Au      6.522466      6.414646      6.877767
  Au     11.595183      8.659354      9.966692
  Au     10.455151      9.420643      7.474107
  Au      9.305144      5.723441      6.469777
  Au      8.315486      8.398801      6.086968
  Au     11.474312      6.618132      8.110316
  Au      9.766212      6.767362     10.803346
  Au      8.900941      9.559819      9.927900
  Au      7.444751      3.883499      7.605058
  Au      9.747320      4.613778      9.018819
  Au      6.680553      8.546165      8.666740
  Au      7.313663      5.901756      9.617995
  Fe      9.031723      7.461903      8.406947
13
Coordinates from ORCA-job pbe E -2893.385682395221
  Au      6.520096      6.422801      6.876398
  Au     11.588565      8.655276      9.964190
  Au     10.430752      9.437125      7.491228
  Au      9.310215      5.719928      6.468456
  Au      8.315055      8.398946      6.087754
  Au     11.487203      6.608725      8.116055
  Au      9.776334      6.756826     10.813271
  Au      8.906303      9.573857      9.896585
  Au      7.438097      3.893964      7.601114
  Au      9.750151      4.613244      9.019115
  Au      6.681722      8.546962      8.665056
  Au      7.315310      5.898689      9.624459
  Fe      9.033101      7.442955      8.408751
13
Coordinates from ORCA-job pbe E -2893.385835819820
  Au      6.520117      6.421854      6.876852
  Au     11.585808      8.660817      9.962991
  Au     10.422004      9.445106      7.496968
  Au      9.314280      5.718262      6.463439
  Au      8.315948      8.399568      6.092669
  Au     11.491359      6.604056      8.114958
  Au      9.777102      6.751559     10.818109
  Au      8.907510      9.581395      9.885146
  Au      7.435247      3.901876      7.599689
  Au      9.748367      4.610181      9.017064
  Au      6.686777      8.547688      8.663060
  Au      7.313149      5.897661      9.630688
  Fe      9.035237      7.429275      8.410801
13
Coordinates from ORCA-job pbe E -2893.386032334754
  Au      6.522238      6.416479      6.879031
  Au     11.577643      8.667966      9.958550
  Au     10.418252      9.450595      7.501052
  Au      9.321926      5.717974      6.451510
  Au      8.317230      8.401242      6.104535
  Au     11.490474      6.602924      8.110387
  Au      9.773062      6.749373     10.819867
  Au      8.908754      9.587423      9.878858
  Au      7.435799      3.911546      7.600776
  Au      9.743113      4.607018      9.012374
  Au      6.698165      8.549112      8.658157
  Au      7.306809      5.898809      9.642755
  Fe      9.039440      7.408837      8.414579
13
Coordinates from ORCA-job pbe E -2893.386127483983
  Au      6.524455      6.412438      6.880950
  Au     11.574719      8.669883      9.957186
  Au     10.422111      9.449372      7.499558
  Au      9.327071      5.719988      6.440371
  Au      8.315513      8.402368      6.113768
  Au     11.487088      6.606118      8.104486
  Au      9.766836      6.752027     10.819343
  Au      8.908475      9.587478      9.882655
  Au      7.440282      3.913405      7.604051
  Au      9.738883      4.607885      9.008893
  Au      6.705596      8.549787      8.652194
  Au      7.299712      5.902120      9.651856
  Fe      9.042165      7.396428      8.417124
13
Coordinates from ORCA-job pbe E -2893.386180857508
  Au      6.525639      6.409325      6.882061
  Au     11.575008      8.665420      9.957950
  Au     10.424959      9.444931      7.498860
  Au      9.329549      5.722397      6.432163
  Au      8.312705      8.403756      6.118416
  Au     11.485981      6.611058      8.099762
  Au      9.762515      6.756825     10.819932
  Au      8.908705      9.583911      9.885578
  Au      7.444738      3.912487      7.606833
  Au      9.737470      4.613708      9.007439
  Au      6.708535      8.551004      8.647535
  Au      7.293726      5.905455      9.657383
  Fe      9.043377      7.389019      8.418522
13
Coordinates from ORCA-job pbe E -2893.386257266184
  Au      6.527132      6.404831      6.883601
  Au     11.580669      8.656846      9.962381
  Au     10.429691      9.434305      7.498460
  Au      9.331791      5.726636      6.420299
  Au      8.305655      8.405547      6.123001
  Au     11.486995      6.619637      8.089903
  Au      9.754636      6.765769     10.824177
  Au      8.910079      9.574494      9.890504
  Au      7.451724      3.910022      7.610685
  Au      9.736964      4.628447      9.006266
  Au      6.709576      8.552604      8.639203
  Au      7.284175      5.910953      9.664123
  Fe      9.043817      7.379207      8.419830
13
Coordinates from ORCA-job pbe E -2893.386342581554
  Au      6.528489      6.399030      6.885369
  Au     11.590386      8.644850      9.969530
  Au     10.433058      9.417874      7.500283
  Au      9.333030      5.731122      6.407171
  Au      8.296566      8.408478      6.126674
  Au     11.491664      6.630978      8.075524
  Au      9.744309      6.778081     10.833410
  Au      8.912762      9.558998      9.893564
  Au      7.459660      3.908280      7.614458
  Au      9.738032      4.651874      9.005816
  Au      6.709197      8.555593      8.629460
  Au      7.272844      5.916666      9.670583
  Fe      9.042908      7.367474      8.420591
13
Coordinates from ORCA-job pbe E -2893.386405584701
  Au      6.528832      6.395735      6.886428
  Au     11.600572      8.636531      9.976479
  Au     10.434398      9.403969      7.504069
  Au      9.332915      5.733012      6.399784
  Au      8.289126      8.410596      6.127105
  Au     11.497702      6.639171      8.061530
  Au      9.734638      6.787739     10.844260
  Au      8.916842      9.545156      9.894082
  Au      7.465024      3.908133      7.616378
  Au      9.740431      4.672508      9.006541
  Au      6.706663      8.557923      8.622508
  Au      7.265755      5.919058      9.673523
  Fe      9.040007      7.359767      8.419744
13
Coordinates from ORCA-job pbe E -2893.386439701868
  Au      6.528453      6.395661      6.886684
  Au     11.605131      8.633137      9.979323
  Au     10.432339      9.399115      7.507310
  Au      9.331886      5.731381      6.399549
  Au      8.288084      8.411632      6.125796
  Au     11.501829      6.641698      8.054017
  Au      9.729582      6.791416     10.851308
  Au      8.918908      9.539533      9.891236
  Au      7.466114      3.910484      7.616049
  Au      9.743356      4.681226      9.008237
  Au      6.705492      8.559445      8.621991
  Au      7.264895      5.917132      9.672903
  Fe      9.036835      7.357439      8.418029
13
Coordinates from ORCA-job pbe E -2893.386459762494
  Au      6.527950      6.396979      6.886722
  Au     11.606355      8.631661      9.979892
  Au     10.432161      9.398181      7.509949
  Au      9.331747      5.728491      6.400737
  Au      8.288770      8.411902      6.124643
  Au     11.502428      6.642665      8.047898
  Au      9.724255      6.793330     10.854824
  Au      8.921562      9.537879      9.890419
  Au      7.467157      3.912838      7.616063
  Au      9.746403      4.684718      9.010236
  Au      6.705009      8.560111      8.622769
  Au      7.265735      5.913858      9.672392
  Fe      9.033373      7.356683      8.415887
13
Coordinates from ORCA-job pbe E -2893.386482321450
  Au      6.527972      6.399080      6.887200
  Au     11.606700      8.627668      9.979940
  Au     10.432059      9.397866      7.511804
  Au      9.331783      5.724025      6.400740
  Au      8.291685      8.412403      6.124644
  Au     11.501530      6.645186      8.039174
  Au      9.716019      6.796946     10.858063
  Au      8.923181      9.536744      9.890104
  Au      7.469305      3.916292      7.616685
  Au      9.751283      4.688245      9.013473
  Au      6.706836      8.561423      8.624900
  Au      7.265804      5.909055      9.672674
  Fe      9.028749      7.354365      8.413031
13
Coordinates from ORCA-job pbe E -2893.386503569444
  Au      6.528512      6.401957      6.888081
  Au     11.606901      8.620039      9.980084
  Au     10.434026      9.397457      7.514288
  Au      9.332960      5.718664      6.398562
  Au      8.294573      8.412728      6.124607
  Au     11.498353      6.650192      8.026756
  Au      9.703723      6.803279     10.860598
  Au      8.926704      9.535564      9.892045
  Au      7.473857      3.919395      7.618719
  Au      9.757917      4.693381      9.017797
  Au      6.708521      8.562745      8.626734
  Au      7.264228      5.903776      9.674799
  Fe      9.022632      7.350121      8.409365
13
Coordinates from ORCA-job pbe E -2893.386513303143
  Au      6.529838      6.404041      6.888982
  Au     11.606996      8.614227      9.980228
  Au     10.434363      9.398542      7.514429
  Au      9.333597      5.716032      6.396298
  Au      8.297315      8.412520      6.124346
  Au     11.495920      6.653408      8.021156
  Au      9.697892      6.806885     10.860469
  Au      8.926812      9.536309      9.893010
  Au      7.476422      3.920565      7.620044
  Au      9.761533      4.694478      9.020264
  Au      6.709875      8.563373      8.629004
  Au      7.262461      5.901608      9.676484
  Fe      9.019882      7.347310      8.407719
13
Coordinates from ORCA-job pbe E -2893.386516757747
  Au      6.531185      6.404920      6.889680
  Au     11.607296      8.611344      9.980499
  Au     10.434349      9.399214      7.514885
  Au      9.334357      5.715596      6.394654
  Au      8.298194      8.412124      6.123317
  Au     11.494436      6.654946      8.019390
  Au      9.695974      6.808435     10.859506
  Au      8.927384      9.536868      9.893509
  Au      7.477812      3.920343      7.620880
  Au      9.762424      4.694627      9.020913
  Au      6.709372      8.563331      8.630088
  Au      7.261020      5.901817      9.677803
  Fe      9.019103      7.345733      8.407310
13
Coordinates from ORCA-job pbe E -2893.386518129847
  Au      6.532512      6.405381      6.890279
  Au     11.607878      8.610893      9.980761
  Au     10.433786      9.399555      7.514908
  Au      9.334519      5.715692      6.394103
  Au      8.298968      8.411692      6.122154
  Au     11.493906      6.655332      8.019445
  Au      9.696021      6.808715     10.858695
  Au      8.927005      9.537049      9.893466
  Au      7.477943      3.920055      7.620997
  Au      9.762147      4.693896      9.020897
  Au      6.708784      8.563154      8.631304
  Au      7.260380      5.902414      9.678157
  Fe      9.019057      7.345470      8.407268
