11
E=  -1136.17293889;c=0;m=3
Au     10.727797922717469      6.306443935494550      8.657921437942530
Au      9.986646083279220      4.427601295928630      6.626748148252450
Au      8.487539012337271      3.469763877954110      8.885406217440339
Au      8.351134775802750      6.427373156645100      5.322458927429960
Au      9.049694818534210      8.355476199035790      7.322098892597360
Au      7.116987576892130      4.093327941451310      6.501465215982700
Au      8.602893116824580      5.832611953590660     10.519561261727810
Au      6.171299613720680      5.053661134843010      9.162408199854260
Au      5.911826960453340      6.620688423166230      6.832887209188460
Au      6.967010615413330      7.832619873966270      9.217388401149281
Cr      8.306993304025060      5.985912557924350      7.913080288434860
