11
Coordinates from ORCA-job pbe E -2402.469926811472
  Au     10.727798      6.306444      8.657921
  Au      9.986646      4.427601      6.626748
  Au      8.487539      3.469764      8.885406
  Au      8.351135      6.427373      5.322459
  Au      9.049695      8.355476      7.322099
  Au      7.116988      4.093328      6.501465
  Au      8.602893      5.832612     10.519561
  Au      6.171300      5.053661      9.162408
  Au      5.911827      6.620688      6.832887
  Au      6.967011      7.832620      9.217388
  Cr      8.306993      5.985913      7.913080
11
Coordinates from ORCA-job pbe E -2402.471153108898
  Au     10.757355      6.311043      8.667054
  Au      9.997459      4.409613      6.625542
  Au      8.456574      3.467426      8.875218
  Au      8.341760      6.433552      5.305239
  Au      9.058859      8.384594      7.315168
  Au      7.121306      4.092901      6.495237
  Au      8.607361      5.821204     10.536389
  Au      6.171231      5.057502      9.169211
  Au      5.903900      6.591009      6.840794
  Au      6.951084      7.845706      9.218239
  Cr      8.312936      5.990931      7.913333
11
Coordinates from ORCA-job pbe E -2402.471966115690
  Au     10.781032      6.318126      8.673334
  Au     10.003272      4.397781      6.638513
  Au      8.415437      3.462068      8.862295
  Au      8.328327      6.444514      5.302843
  Au      9.068974      8.407519      7.310783
  Au      7.137134      4.092294      6.473241
  Au      8.617183      5.805636     10.538435
  Au      6.171437      5.072673      9.192133
  Au      5.891937      6.551430      6.850910
  Au      6.941099      7.853171      9.205170
  Cr      8.323992      6.000268      7.913768
11
Coordinates from ORCA-job pbe E -2402.473306028116
  Au     10.817217      6.333485      8.681541
  Au     10.013284      4.379741      6.678826
  Au      8.323077      3.444836      8.835491
  Au      8.298677      6.474270      5.310386
  Au      9.088036      8.441938      7.305679
  Au      7.183876      4.091989      6.411913
  Au      8.644978      5.770387     10.529715
  Au      6.174471      5.116921      9.256026
  Au      5.859479      6.463738      6.871476
  Au      6.927127      7.866387      9.165641
  Cr      8.349602      6.021789      7.914730
11
Coordinates from ORCA-job pbe E -2402.474858349554
  Au     10.846477      6.351448      8.686178
  Au     10.026570      4.358837      6.743574
  Au      8.198660      3.424167      8.798575
  Au      8.256493      6.522905      5.328735
  Au      9.107989      8.468647      7.303761
  Au      7.262194      4.092965      6.313587
  Au      8.688818      5.719700     10.509951
  Au      6.182165      5.190444      9.358872
  Au      5.817927      6.343815      6.900213
  Au      6.912570      7.885469      9.102189
  Cr      8.379960      6.047084      7.915789
11
Coordinates from ORCA-job pbe E -2402.476588129454
  Au     10.858440      6.365614      8.685481
  Au     10.043877      4.335450      6.820321
  Au      8.068155      3.414805      8.754408
  Au      8.207625      6.584625      5.350582
  Au      9.122047      8.478236      7.306133
  Au      7.357249      4.094710      6.197784
  Au      8.741152      5.661324     10.487664
  Au      6.194870      5.278725      9.481873
  Au      5.786522      6.214698      6.935186
  Au      6.897140      7.911516      9.025445
  Cr      8.402747      6.065778      7.916547
11
Coordinates from ORCA-job pbe E -2402.478324699692
  Au     10.853546      6.376301      8.679768
  Au     10.066655      4.307581      6.911047
  Au      7.930571      3.424762      8.702216
  Au      8.149358      6.660768      5.375086
  Au      9.130657      8.471711      7.312522
  Au      7.466269      4.099283      6.070236
  Au      8.806081      5.591489     10.463762
  Au      6.211604      5.378219      9.615451
  Au      5.771809      6.074507      6.981618
  Au      6.879035      7.945951      8.932883
  Cr      8.414239      6.074907      7.916837
11
Coordinates from ORCA-job pbe E -2402.479769037928
  Au     10.844132      6.390045      8.670402
  Au     10.089026      4.271777      7.011950
  Au      7.788961      3.460589      8.640075
  Au      8.077393      6.741107      5.401209
  Au      9.143806      8.460363      7.321749
  Au      7.580195      4.111633      5.948057
  Au      8.874586      5.507762     10.438055
  Au      6.236343      5.482981      9.744777
  Au      5.780893      5.924965      7.037458
  Au      6.851170      7.980353      8.830996
  Cr      8.413319      6.073904      7.916696
11
Coordinates from ORCA-job pbe E -2402.481439965849
  Au     10.836673      6.412494      8.658016
  Au     10.102640      4.231306      7.096724
  Au      7.687451      3.513258      8.586131
  Au      8.005956      6.803227      5.419054
  Au      9.167316      8.448799      7.334190
  Au      7.665515      4.129790      5.868011
  Au      8.924320      5.428194     10.419704
  Au      6.263396      5.560848      9.829848
  Au      5.812949      5.811626      7.089197
  Au      6.815826      8.004971      8.744463
  Cr      8.397781      6.060967      7.916088
11
Coordinates from ORCA-job pbe E -2402.483072031836
  Au     10.847084      6.454470      8.645925
  Au     10.111432      4.184511      7.164209
  Au      7.620276      3.559337      8.545772
  Au      7.935378      6.849163      5.426689
  Au      9.212937      8.450988      7.348267
  Au      7.718660      4.146672      5.829266
  Au      8.960325      5.353036     10.411178
  Au      6.283633      5.608355      9.870524
  Au      5.842343      5.734933      7.128657
  Au      6.773865      8.022437      8.675547
  Cr      8.373891      6.041579      7.915391
11
Coordinates from ORCA-job pbe E -2402.483554815908
  Au     10.860972      6.469799      8.644904
  Au     10.116001      4.176635      7.176488
  Au      7.617712      3.545475      8.551017
  Au      7.922736      6.858594      5.427867
  Au      9.230128      8.461469      7.351037
  Au      7.713931      4.150533      5.840493
  Au      8.966861      5.340335     10.410077
  Au      6.288060      5.602338      9.860385
  Au      5.827616      5.735706      7.121577
  Au      6.768388      8.028021      8.662245
  Cr      8.367419      6.036574      7.915335
11
Coordinates from ORCA-job pbe E -2402.484056999451
  Au     10.862244      6.492183      8.637884
  Au     10.122277      4.171677      7.196142
  Au      7.649656      3.515162      8.571160
  Au      7.907839      6.876555      5.434401
  Au      9.253058      8.457772      7.359396
  Au      7.690953      4.160765      5.891502
  Au      8.982068      5.326059     10.404872
  Au      6.296995      5.578536      9.808713
  Au      5.803040      5.773601      7.101332
  Au      6.766929      8.034702      8.641199
  Cr      8.344765      6.018469      7.914822
11
Coordinates from ORCA-job pbe E -2402.484357814707
  Au     10.872238      6.516641      8.632771
  Au     10.129847      4.158529      7.259401
  Au      7.611857      3.487639      8.567702
  Au      7.866233      6.919408      5.460065
  Au      9.278924      8.463115      7.366121
  Au      7.719622      4.177808      5.880019
  Au      9.020438      5.280713     10.379167
  Au      6.315983      5.603939      9.821354
  Au      5.769958      5.740293      7.101103
  Au      6.759497      8.046334      8.579009
  Cr      8.335227      6.011062      7.914713
11
Coordinates from ORCA-job pbe E -2402.484539559920
  Au     10.867391      6.517043      8.629951
  Au     10.127116      4.160474      7.274779
  Au      7.615516      3.482905      8.572958
  Au      7.858322      6.926429      5.471424
  Au      9.278827      8.457843      7.368260
  Au      7.720585      4.186254      5.888746
  Au      9.025214      5.272652     10.367718
  Au      6.326234      5.602940      9.813611
  Au      5.765669      5.743844      7.095043
  Au      6.761913      8.045858      8.564207
  Cr      8.333037      6.009239      7.914727
11
Coordinates from ORCA-job pbe E -2402.484678461434
  Au     10.863558      6.521494      8.628523
  Au     10.120857      4.155715      7.307728
  Au      7.601357      3.482626      8.563438
  Au      7.837840      6.944763      5.489556
  Au      9.282604      8.453316      7.369216
  Au      7.737437      4.195683      5.886586
  Au      9.040560      5.250072     10.349426
  Au      6.338704      5.618643      9.816118
  Au      5.763564      5.728494      7.103899
  Au      6.757615      8.043237      8.532050
  Cr      8.335728      6.011436      7.914885
11
Coordinates from ORCA-job pbe E -2402.484797982283
  Au     10.864513      6.530747      8.625255
  Au     10.117527      4.144122      7.349002
  Au      7.573702      3.489238      8.553622
  Au      7.806896      6.966257      5.508401
  Au      9.291593      8.452736      7.372902
  Au      7.758073      4.209346      5.876099
  Au      9.057928      5.216594     10.329994
  Au      6.355511      5.636707      9.827906
  Au      5.765902      5.699390      7.112439
  Au      6.747495      8.044785      8.490641
  Cr      8.340684      6.015557      7.915164
11
Coordinates from ORCA-job pbe E -2402.485014150431
  Au     10.873048      6.553560      8.621505
  Au     10.105837      4.110123      7.449659
  Au      7.505942      3.506211      8.522169
  Au      7.727709      7.019979      5.551733
  Au      9.314674      8.457576      7.378681
  Au      7.812549      4.239530      5.852004
  Au      9.100566      5.131234     10.284914
  Au      6.394890      5.684649      9.856780
  Au      5.771340      5.628799      7.140250
  Au      6.716891      8.045180      8.387663
  Cr      8.356379      6.028638      7.916067
11
Coordinates from ORCA-job pbe E -2402.485118226446
  Au     10.877791      6.554608      8.623048
  Au     10.105039      4.097265      7.464035
  Au      7.495282      3.511109      8.517960
  Au      7.710580      7.026521      5.552970
  Au      9.316145      8.462579      7.378066
  Au      7.822024      4.247336      5.848480
  Au      9.105667      5.112895     10.282596
  Au      6.402958      5.693516      9.860668
  Au      5.774632      5.618428      7.145027
  Au      6.704839      8.045547      8.372145
  Cr      8.364866      6.035675      7.916429
11
Coordinates from ORCA-job pbe E -2402.485191157678
  Au     10.879890      6.551677      8.624689
  Au     10.109123      4.084302      7.462854
  Au      7.503957      3.507760      8.521476
  Au      7.702730      7.028770      5.542432
  Au      9.313728      8.465032      7.376741
  Au      7.822751      4.252151      5.856991
  Au      9.106104      5.104415     10.292293
  Au      6.407231      5.693123      9.853939
  Au      5.771004      5.627942      7.141573
  Au      6.693387      8.050441      8.371679
  Cr      8.369920      6.039868      7.916756
11
Coordinates from ORCA-job pbe E -2402.485200688130
  Au     10.880125      6.552317      8.624311
  Au     10.109166      4.075727      7.484151
  Au      7.492341      3.510521      8.516074
  Au      7.685087      7.042039      5.550010
  Au      9.314638      8.464942      7.377074
  Au      7.836121      4.259702      5.852385
  Au      9.116169      5.085807     10.284588
  Au      6.416620      5.704647      9.859634
  Au      5.771416      5.615814      7.146565
  Au      6.686225      8.052452      8.349742
  Cr      8.371916      6.041513      7.916890
11
Coordinates from ORCA-job pbe E -2402.485205687416
  Au     10.878488      6.548228      8.624718
  Au     10.110828      4.077905      7.476657
  Au      7.497410      3.509918      8.518354
  Au      7.690562      7.038434      5.546520
  Au      9.310685      8.463860      7.376155
  Au      7.833461      4.258200      5.853328
  Au      9.113232      5.092081     10.288498
  Au      6.414177      5.702467      9.858099
  Au      5.772033      5.620846      7.144737
  Au      6.688238      8.053071      8.357552
  Cr      8.370711      6.040471      7.916807
11
Coordinates from ORCA-job pbe E -2402.485206903085
  Au     10.877645      6.547602      8.624175
  Au     10.111171      4.077657      7.477073
  Au      7.498633      3.509381      8.518966
  Au      7.689675      7.039023      5.546716
  Au      9.310308      8.462830      7.376388
  Au      7.834639      4.259339      5.854170
  Au      9.113432      5.091748     10.288574
  Au      6.415106      5.703235      9.857346
  Au      5.771652      5.621697      7.144008
  Au      6.688221      8.053664      8.357231
  Cr      8.369344      6.039305      7.916777
11
Coordinates from ORCA-job pbe E -2402.485207270509
  Au     10.877601      6.547105      8.624040
  Au     10.111125      4.077084      7.477878
  Au      7.497399      3.510083      8.518346
  Au      7.688443      7.039627      5.547077
  Au      9.310027      8.462649      7.376383
  Au      7.836663      4.260107      5.853316
  Au      9.113535      5.090932     10.288330
  Au      6.415956      5.704797      9.858228
  Au      5.771935      5.620071      7.144628
  Au      6.687857      8.053827      8.356418
  Cr      8.369282      6.039198      7.916781
