15
E=  -1570.53559981;c=0;m=5
Au      8.511489667736379      8.760003776511629      6.265142818258440
Au      8.361788220871810      7.065051000701090      8.802590212773611
Au      6.258054461855270      8.035838365970960     10.287497067358670
Au      5.522232744024260      6.345419281973120      8.002212349590559
Au      5.570553707545150     10.638151206197250      9.317090313369899
Au      5.621445387021590      8.099783942975680      5.525467988605220
Au      7.779507267378420     10.987199472677970      7.578907631188570
Au      4.057411561247650      8.866262745304770      7.656378946249530
Au      9.601472201765761      6.200611497432180      6.353221325843290
Au      9.994072735697090      4.842582200206530      8.699371384357651
Au      7.551110135315380      4.449358345409390      7.507131094174380
Au      7.920900414799200      6.835135477543240      4.343327823492880
Au      5.428678810667820      6.567027586251220      3.239084399162970
Au      5.877415432863370      5.081521669798660      5.505615415522920
Cr      6.580882811210840      8.830407591046320      7.901537970051480
