15
Coordinates from ORCA-job pbe E -2945.797605602085
  Au      8.511490      8.760004      6.265143
  Au      8.361788      7.065051      8.802590
  Au      6.258054      8.035838     10.287497
  Au      5.522233      6.345419      8.002212
  Au      5.570554     10.638151      9.317090
  Au      5.621445      8.099784      5.525468
  Au      7.779507     10.987199      7.578908
  Au      4.057412      8.866263      7.656379
  Au      9.601472      6.200611      6.353221
  Au      9.994073      4.842582      8.699371
  Au      7.551110      4.449358      7.507131
  Au      7.920900      6.835135      4.343328
  Au      5.428679      6.567028      3.239084
  Au      5.877415      5.081522      5.505615
  Cr      6.580883      8.830408      7.901538
15
Coordinates from ORCA-job pbe E -2945.800929836770
  Au      8.541195      8.757014      6.239660
  Au      8.359033      7.052440      8.806704
  Au      6.281816      7.998137     10.297267
  Au      5.545861      6.353915      7.985603
  Au      5.550544     10.629116      9.330293
  Au      5.613692      8.089374      5.523638
  Au      7.797373     11.023041      7.574974
  Au      4.042977      8.842901      7.619350
  Au      9.579038      6.202637      6.356497
  Au      9.972533      4.846416      8.689213
  Au      7.531971      4.483459      7.504190
  Au      7.912922      6.831491      4.364558
  Au      5.434335      6.561106      3.261638
  Au      5.885657      5.105046      5.535910
  Cr      6.588070      8.828260      7.895079
15
Coordinates from ORCA-job pbe E -2945.802913106798
  Au      8.578496      8.783991      6.217304
  Au      8.368625      7.033477      8.838055
  Au      6.306100      7.968029     10.325341
  Au      5.553112      6.371633      7.985793
  Au      5.525686     10.617400      9.346474
  Au      5.581799      8.086388      5.505032
  Au      7.826686     11.061064      7.561899
  Au      4.013808      8.832764      7.582832
  Au      9.584683      6.199196      6.374317
  Au      9.993978      4.822568      8.712808
  Au      7.537771      4.487187      7.525300
  Au      7.896110      6.836289      4.356108
  Au      5.410162      6.555217      3.230541
  Au      5.867960      5.117304      5.529512
  Cr      6.592041      8.831846      7.893261
15
Coordinates from ORCA-job pbe E -2945.804499568508
  Au      8.592536      8.807696      6.213145
  Au      8.370054      7.008644      8.853488
  Au      6.319199      7.963756     10.342690
  Au      5.551067      6.379577      7.990264
  Au      5.521218     10.592561      9.341886
  Au      5.561181      8.070043      5.493258
  Au      7.852811     11.049981      7.535898
  Au      3.999266      8.838569      7.567817
  Au      9.561631      6.222760      6.386537
  Au      9.996278      4.814629      8.694221
  Au      7.534716      4.501962      7.526494
  Au      7.886560      6.854528      4.384472
  Au      5.425800      6.542783      3.227482
  Au      5.869890      5.129930      5.537252
  Cr      6.594806      8.826936      7.889673
15
Coordinates from ORCA-job pbe E -2945.805711427013
  Au      8.610832      8.834822      6.206366
  Au      8.368445      6.990542      8.879406
  Au      6.336691      7.965251     10.347380
  Au      5.547272      6.384759      7.994970
  Au      5.517360     10.560154      9.334463
  Au      5.531994      8.062659      5.485844
  Au      7.868651     11.042325      7.519768
  Au      3.999369      8.846020      7.551508
  Au      9.545688      6.248893      6.400952
  Au     10.006339      4.798476      8.682368
  Au      7.524058      4.507861      7.528006
  Au      7.877548      6.877791      4.407071
  Au      5.434128      6.527701      3.214011
  Au      5.867111      5.132633      5.548982
  Cr      6.601530      8.824465      7.883482
15
Coordinates from ORCA-job pbe E -2945.806812049639
  Au      8.630338      8.852960      6.195260
  Au      8.372408      6.968138      8.907126
  Au      6.347677      7.975402     10.347130
  Au      5.542532      6.390828      8.000625
  Au      5.515250     10.530217      9.326839
  Au      5.501012      8.053660      5.471241
  Au      7.873068     11.041354      7.515514
  Au      4.004843      8.857694      7.545273
  Au      9.532017      6.266087      6.424628
  Au     10.011330      4.788218      8.665900
  Au      7.527084      4.509447      7.533832
  Au      7.858075      6.896893      4.423365
  Au      5.447586      6.514522      3.207650
  Au      5.862218      5.136917      5.545838
  Cr      6.611578      8.822016      7.874355
15
Coordinates from ORCA-job pbe E -2945.807976466934
  Au      8.652386      8.870227      6.181326
  Au      8.375928      6.946788      8.937131
  Au      6.351961      7.992626     10.345296
  Au      5.539344      6.393192      8.003847
  Au      5.512418     10.515060      9.325147
  Au      5.467816      8.046238      5.456934
  Au      7.866898     11.050475      7.523391
  Au      4.012149      8.873209      7.548126
  Au      9.521298      6.283766      6.437974
  Au     10.021373      4.768020      8.648941
  Au      7.521795      4.504460      7.533662
  Au      7.849274      6.913570      4.438239
  Au      5.460001      6.493644      3.192929
  Au      5.859317      5.130774      5.548597
  Cr      6.625057      8.822304      7.863037
15
Coordinates from ORCA-job pbe E -2945.809296928438
  Au      8.674794      8.893073      6.168744
  Au      8.377389      6.923614      8.968421
  Au      6.356310      8.005489     10.334237
  Au      5.543322      6.395115      8.001100
  Au      5.510479     10.513513      9.327474
  Au      5.432067      8.037043      5.443865
  Au      7.854199     11.058483      7.536442
  Au      4.027029      8.881317      7.549608
  Au      9.513012      6.297671      6.454974
  Au     10.024332      4.749603      8.637483
  Au      7.518650      4.500117      7.532909
  Au      7.836446      6.928975      4.449225
  Au      5.466242      6.474284      3.185028
  Au      5.857748      5.125762      5.549656
  Cr      6.644996      8.820294      7.845411
15
Coordinates from ORCA-job pbe E -2945.810680528228
  Au      8.691417      8.911249      6.159436
  Au      8.376437      6.899177      8.996027
  Au      6.350371      8.017040     10.320865
  Au      5.549147      6.397137      7.997023
  Au      5.515770     10.530577      9.329674
  Au      5.398762      8.024483      5.432329
  Au      7.839949     11.061793      7.549368
  Au      4.041456      8.885127      7.561447
  Au      9.503567      6.314137      6.468169
  Au     10.024786      4.734434      8.629061
  Au      7.519915      4.493586      7.528712
  Au      7.827495      6.944939      4.462442
  Au      5.470437      6.457904      3.179747
  Au      5.860031      5.118853      5.546169
  Cr      6.667475      8.813918      7.824109
15
Coordinates from ORCA-job pbe E -2945.812002825801
  Au      8.707039      8.933814      6.153069
  Au      8.371631      6.874925      9.022885
  Au      6.340446      8.028704     10.306962
  Au      5.557299      6.398036      7.990970
  Au      5.524672     10.539812      9.325619
  Au      5.365015      8.010881      5.425321
  Au      7.831801     11.063649      7.556778
  Au      4.056221      8.887320      7.575650
  Au      9.493132      6.329749      6.483651
  Au     10.024106      4.723488      8.621539
  Au      7.521037      4.489143      7.522416
  Au      7.815632      6.960780      4.476294
  Au      5.474060      6.445687      3.177250
  Au      5.864724      5.113154      5.544173
  Cr      6.690202      8.805214      7.801998
15
Coordinates from ORCA-job pbe E -2945.813333001652
  Au      8.721488      8.952636      6.146434
  Au      8.362234      6.852710      9.049063
  Au      6.325933      8.035617     10.291747
  Au      5.564987      6.398579      7.985192
  Au      5.539818     10.550470      9.316257
  Au      5.331643      7.997062      5.422437
  Au      7.828399     11.067170      7.560860
  Au      4.069411      8.884618      7.594567
  Au      9.481087      6.347021      6.498120
  Au     10.023583      4.717486      8.617391
  Au      7.524807      4.484252      7.516311
  Au      7.804598      6.977079      4.492233
  Au      5.476641      6.438810      3.175698
  Au      5.869849      5.107945      5.539236
  Cr      6.712538      8.792900      7.779031
15
Coordinates from ORCA-job pbe E -2945.814652473044
  Au      8.739908      8.971069      6.137053
  Au      8.353733      6.828406      9.077863
  Au      6.314015      8.046973     10.280214
  Au      5.569094      6.396999      7.981269
  Au      5.553301     10.555283      9.306908
  Au      5.295192      7.983083      5.419162
  Au      7.824841     11.071688      7.564197
  Au      4.081510      8.886333      7.610198
  Au      9.469938      6.363797      6.513555
  Au     10.026129      4.711648      8.612168
  Au      7.528566      4.478222      7.510166
  Au      7.792886      6.993734      4.507581
  Au      5.480366      6.433193      3.171745
  Au      5.874350      5.101906      5.534152
  Cr      6.733187      8.782020      7.758345
15
Coordinates from ORCA-job pbe E -2945.816051552617
  Au      8.759303      8.990251      6.127988
  Au      8.340550      6.806154      9.104958
  Au      6.293768      8.054188     10.266806
  Au      5.572348      6.391581      7.976444
  Au      5.575689     10.561588      9.290247
  Au      5.259802      7.969168      5.421566
  Au      7.825900     11.079586      7.563302
  Au      4.092447      8.881203      7.632687
  Au      9.459154      6.380053      6.529050
  Au     10.027787      4.711506      8.609686
  Au      7.533322      4.472295      7.502945
  Au      7.780981      7.009904      4.522858
  Au      5.483016      6.433713      3.170288
  Au      5.879962      5.096023      5.528186
  Cr      6.752989      8.767141      7.737566
15
Coordinates from ORCA-job pbe E -2945.817503702913
  Au      8.781722      9.011130      6.117608
  Au      8.322256      6.788592      9.130925
  Au      6.264793      8.051226     10.252078
  Au      5.571143      6.379924      7.972969
  Au      5.611614     10.566911      9.261174
  Au      5.226198      7.957669      5.429983
  Au      7.836060     11.092716      7.553778
  Au      4.099070      8.864992      7.662900
  Au      9.448508      6.399270      6.545419
  Au     10.028790      4.716884      8.610747
  Au      7.538468      4.467086      7.496594
  Au      7.769408      7.028829      4.539442
  Au      5.484763      6.440783      3.170870
  Au      5.884874      5.091308      5.521395
  Cr      6.769349      8.747034      7.718697
15
Coordinates from ORCA-job pbe E -2945.818904475211
  Au      8.801976      9.030663      6.108038
  Au      8.305311      6.767732      9.157209
  Au      6.238493      8.053660     10.236461
  Au      5.570332      6.367244      7.969679
  Au      5.642687     10.575209      9.237558
  Au      5.191585      7.944109      5.436179
  Au      7.844081     11.097304      7.544779
  Au      4.108313      8.853546      7.690720
  Au      9.437267      6.419256      6.562668
  Au     10.031166      4.721922      8.610993
  Au      7.544349      4.461520      7.489494
  Au      7.756933      7.048824      4.556527
  Au      5.487069      6.447728      3.170464
  Au      5.890659      5.085955      5.514451
  Cr      6.786796      8.729682      7.699356
15
Coordinates from ORCA-job pbe E -2945.820290935526
  Au      8.824713      9.050753      6.096304
  Au      8.286719      6.747305      9.183854
  Au      6.212992      8.053446     10.219014
  Au      5.568945      6.352807      7.966538
  Au      5.672062     10.583118      9.215047
  Au      5.156970      7.930964      5.443933
  Au      7.855276     11.101113      7.533112
  Au      4.118015      8.839409      7.716986
  Au      9.425334      6.439480      6.580591
  Au     10.033096      4.728397      8.612932
  Au      7.550873      4.456995      7.482817
  Au      7.743641      7.069074      4.574269
  Au      5.488030      6.456526      3.171241
  Au      5.896431      5.081831      5.507450
  Cr      6.803919      8.713135      7.680487
15
Coordinates from ORCA-job pbe E -2945.821656392472
  Au      8.847600      9.068317      6.082927
  Au      8.267571      6.725339      9.209912
  Au      6.189948      8.056665     10.200392
  Au      5.569122      6.339567      7.962512
  Au      5.694913     10.591640      9.198099
  Au      5.122759      7.915916      5.451042
  Au      7.864858     11.103243      7.523657
  Au      4.130057      8.829102      7.743126
  Au      9.413337      6.458309      6.598042
  Au     10.035117      4.734830      8.615418
  Au      7.557901      4.452472      7.475414
  Au      7.730327      7.087752      4.591161
  Au      5.488524      6.464845      3.171482
  Au      5.903108      5.077322      5.500040
  Cr      6.821873      8.699035      7.661352
15
Coordinates from ORCA-job pbe E -2945.823001993184
  Au      8.873182      9.084751      6.067517
  Au      8.247145      6.703327      9.234854
  Au      6.166593      8.060244     10.180894
  Au      5.570046      6.325931      7.957885
  Au      5.713764     10.601463      9.184616
  Au      5.089471      7.900823      5.461283
  Au      7.875742     11.104971      7.513619
  Au      4.143229      8.817345      7.765850
  Au      9.401491      6.475997      6.615289
  Au     10.037235      4.741900      8.619040
  Au      7.566063      4.447809      7.467493
  Au      7.716572      7.105672      4.607900
  Au      5.486642      6.474686      3.173027
  Au      5.910124      5.072897      5.492485
  Cr      6.839717      8.686540      7.642825
15
Coordinates from ORCA-job pbe E -2945.824301431699
  Au      8.896118      9.099219      6.051270
  Au      8.224444      6.680997      9.258493
  Au      6.148853      8.066049     10.161111
  Au      5.573147      6.314692      7.951497
  Au      5.728414     10.612223      9.175040
  Au      5.057645      7.882402      5.469228
  Au      7.883083     11.105245      7.507922
  Au      4.158077      8.812794      7.792390
  Au      9.389041      6.492647      6.632280
  Au     10.038447      4.748954      8.623725
  Au      7.574125      4.442534      7.458412
  Au      7.702986      7.121534      4.623249
  Au      5.485975      6.482172      3.172837
  Au      5.918521      5.066786      5.483232
  Cr      6.858138      8.676107      7.623888
15
Coordinates from ORCA-job pbe E -2945.825545061045
  Au      8.920907      9.112760      6.036602
  Au      8.202786      6.656715      9.279858
  Au      6.128098      8.074945     10.143992
  Au      5.576691      6.303526      7.945152
  Au      5.742688     10.623910      9.166406
  Au      5.026050      7.864212      5.483131
  Au      7.891665     11.104993      7.500273
  Au      4.172295      8.805363      7.808233
  Au      9.376865      6.508717      6.649291
  Au     10.041165      4.756043      8.627414
  Au      7.584420      4.436036      7.448394
  Au      7.688865      7.138187      4.640188
  Au      5.481973      6.492517      3.174862
  Au      5.926896      5.060321      5.474468
  Cr      6.875653      8.666109      7.606313
15
Coordinates from ORCA-job pbe E -2945.826725645088
  Au      8.942773      9.127613      6.020239
  Au      8.177331      6.634023      9.301078
  Au      6.117647      8.079561     10.128496
  Au      5.580859      6.293992      7.937832
  Au      5.755405     10.633614      9.158679
  Au      4.995634      7.842695      5.492845
  Au      7.900576     11.104180      7.493667
  Au      4.185194      8.804605      7.828404
  Au      9.363053      6.525826      6.667282
  Au     10.041880      4.764116      8.633937
  Au      7.593233      4.429626      7.438054
  Au      7.674246      7.154175      4.656241
  Au      5.480570      6.500702      3.175210
  Au      5.936129      5.052668      5.463641
  Cr      6.892487      8.656958      7.588971
15
Coordinates from ORCA-job pbe E -2945.827837834868
  Au      8.962985      9.139989      6.007346
  Au      8.154813      6.607731      9.319971
  Au      6.107077      8.089715     10.116633
  Au      5.586373      6.287139      7.930685
  Au      5.769476     10.643444      9.151003
  Au      4.964757      7.819536      5.504289
  Au      7.905918     11.102879      7.488928
  Au      4.197456      8.805678      7.840055
  Au      9.348924      6.542193      6.685274
  Au     10.043621      4.771891      8.638671
  Au      7.603722      4.422019      7.426853
  Au      7.659611      7.170313      4.673810
  Au      5.477880      6.510287      3.175732
  Au      5.945714      5.044003      5.453055
  Cr      6.908689      8.647537      7.572273
15
Coordinates from ORCA-job pbe E -2945.828878329379
  Au      8.984672      9.155117      5.992512
  Au      8.131378      6.582581      9.339284
  Au      6.103854      8.095229     10.108184
  Au      5.591247      6.281254      7.924173
  Au      5.780516     10.648961      9.144369
  Au      4.934278      7.795632      5.514451
  Au      7.915517     11.102347      7.480804
  Au      4.206515      8.808184      7.846800
  Au      9.333884      6.559712      6.704179
  Au     10.045119      4.779089      8.645233
  Au      7.612988      4.414753      7.415806
  Au      7.643735      7.187160      4.691917
  Au      5.475530      6.519804      3.177222
  Au      5.954910      5.035865      5.442357
  Cr      6.922870      8.638665      7.557287
15
Coordinates from ORCA-job pbe E -2945.829842632213
  Au      9.002459      9.166989      5.980725
  Au      8.109783      6.555385      9.356683
  Au      6.099421      8.103029     10.098426
  Au      5.597848      6.278381      7.917763
  Au      5.796724     10.658098      9.135762
  Au      4.903547      7.770154      5.523063
  Au      7.919054     11.101054      7.477510
  Au      4.217747      8.811769      7.855239
  Au      9.317916      6.576547      6.723441
  Au     10.045397      4.787913      8.651045
  Au      7.623489      4.407529      7.404405
  Au      7.628548      7.203276      4.710854
  Au      5.472992      6.529353      3.176632
  Au      5.965092      5.026729      5.431165
  Cr      6.936999      8.628150      7.541865
15
Coordinates from ORCA-job pbe E -2945.830725537302
  Au      9.022331      9.180750      5.968273
  Au      8.090188      6.527615      9.376013
  Au      6.101991      8.112520     10.093035
  Au      5.603228      6.276140      7.912366
  Au      5.802797     10.659151      9.131874
  Au      4.872377      7.744669      5.530012
  Au      7.927959     11.099236      7.468843
  Au      4.226532      8.819159      7.854112
  Au      9.302451      6.594409      6.742720
  Au     10.048808      4.792414      8.655967
  Au      7.632196      4.400482      7.393205
  Au      7.611604      7.220591      4.730266
  Au      5.471526      6.537869      3.178137
  Au      5.973810      5.019622      5.421167
  Cr      6.949217      8.619727      7.528588
15
Coordinates from ORCA-job pbe E -2945.831525297930
  Au      9.041557      9.192970      5.955304
  Au      8.068760      6.502299      9.393476
  Au      6.099865      8.114074     10.081972
  Au      5.608785      6.272429      7.907010
  Au      5.819682     10.671115      9.123206
  Au      4.841915      7.720916      5.538262
  Au      7.933879     11.098249      7.463705
  Au      4.237457      8.818386      7.860287
  Au      9.285871      6.611411      6.763158
  Au     10.047975      4.802294      8.662721
  Au      7.642669      4.394849      7.382333
  Au      7.595468      7.236831      4.750097
  Au      5.468371      6.547767      3.177713
  Au      5.983833      5.011970      5.410158
  Cr      6.960931      8.608794      7.515175
15
Coordinates from ORCA-job pbe E -2945.832242629224
  Au      9.056767      9.202087      5.945861
  Au      8.052551      6.471884      9.412341
  Au      6.108043      8.128100     10.076314
  Au      5.615387      6.273853      7.902015
  Au      5.822728     10.675070      9.122760
  Au      4.810170      7.694230      5.540863
  Au      7.936300     11.093425      7.460503
  Au      4.249525      8.831135      7.856139
  Au      9.270411      6.628095      6.782779
  Au     10.051807      4.805455      8.664776
  Au      7.651485      4.388787      7.371304
  Au      7.578412      7.252992      4.769463
  Au      5.468437      6.552853      3.176366
  Au      5.992628      5.005440      5.400416
  Cr      6.972364      8.600949      7.502679
15
Coordinates from ORCA-job pbe E -2945.832872989547
  Au      9.076214      9.212578      5.933419
  Au      8.034253      6.445123      9.431094
  Au      6.112170      8.133722     10.066038
  Au      5.619878      6.270815      7.897560
  Au      5.829801     10.685352      9.119941
  Au      4.779874      7.671365      5.546241
  Au      7.942136     11.089415      7.454490
  Au      4.261798      8.833494      7.854438
  Au      9.255195      6.644771      6.803007
  Au     10.054005      4.811247      8.669212
  Au      7.660843      4.384092      7.360505
  Au      7.560684      7.269301      4.789023
  Au      5.466571      6.560452      3.177325
  Au      6.001454      5.000307      5.390712
  Cr      6.982141      8.592320      7.491571
15
Coordinates from ORCA-job pbe E -2945.833409048677
  Au      9.090647      9.219468      5.922952
  Au      8.018609      6.414969      9.448970
  Au      6.126248      8.144832     10.058180
  Au      5.625643      6.272661      7.893473
  Au      5.829761     10.696018      9.123969
  Au      4.748644      7.646569      5.547358
  Au      7.942640     11.081181      7.453882
  Au      4.276322      8.845476      7.848125
  Au      9.240324      6.660431      6.823757
  Au     10.055399      4.815381      8.669659
  Au      7.669945      4.380391      7.350561
  Au      7.544003      7.284811      4.807542
  Au      5.466997      6.562122      3.172781
  Au      6.010428      4.994262      5.381947
  Cr      6.991406      8.585781      7.481421
15
Coordinates from ORCA-job pbe E -2945.833828675758
  Au      9.107165      9.225377      5.912344
  Au      8.002279      6.386335      9.468175
  Au      6.133727      8.156676     10.045051
  Au      5.630371      6.271491      7.888430
  Au      5.831015     10.713230      9.124419
  Au      4.721303      7.623114      5.549442
  Au      7.940590     11.072131      7.452928
  Au      4.293182      8.850430      7.842073
  Au      9.227104      6.676183      6.841857
  Au     10.062929      4.815439      8.672566
  Au      7.678435      4.375222      7.338287
  Au      7.524121      7.300004      4.825867
  Au      5.466957      6.568134      3.178659
  Au      6.018297      4.992125      5.372372
  Cr      6.999540      8.578463      7.472104
15
Coordinates from ORCA-job pbe E -2945.834151688637
  Au      9.122844      9.232485      5.899758
  Au      7.988329      6.357439      9.483076
  Au      6.153754      8.165956     10.035856
  Au      5.634511      6.271457      7.885265
  Au      5.824587     10.723666      9.135427
  Au      4.691232      7.602183      5.550677
  Au      7.943741     11.060549      7.450939
  Au      4.308791      8.862015      7.834090
  Au      9.213447      6.690611      6.864282
  Au     10.058617      4.822019      8.671020
  Au      7.687688      4.374821      7.331789
  Au      7.509668      7.315439      4.842752
  Au      5.466916      6.566416      3.168176
  Au      6.026882      4.985086      5.366311
  Cr      7.006008      8.574212      7.465159
15
Coordinates from ORCA-job pbe E -2945.834349021878
  Au      9.133398      9.235569      5.890871
  Au      7.973040      6.327466      9.499854
  Au      6.171461      8.179968     10.025879
  Au      5.639875      6.275331      7.880537
  Au      5.819869     10.741963      9.142089
  Au      4.665694      7.577402      5.550108
  Au      7.938229     11.047631      7.454434
  Au      4.326114      8.875536      7.822805
  Au      9.200205      6.705952      6.882422
  Au     10.065401      4.820069      8.669927
  Au      7.695747      4.370741      7.320519
  Au      7.490763      7.329706      4.859950
  Au      5.469837      6.565925      3.169514
  Au      6.034649      4.982166      5.357910
  Cr      7.012734      8.568929      7.457759
15
Coordinates from ORCA-job pbe E -2945.834390468960
  Au      9.151201      9.239597      5.877805
  Au      7.960809      6.309475      9.511844
  Au      6.175070      8.185106     10.012988
  Au      5.640844      6.265286      7.876030
  Au      5.823028     10.751498      9.141209
  Au      4.647529      7.565925      5.553721
  Au      7.941575     11.040234      7.450194
  Au      4.338306      8.874422      7.822512
  Au      9.191088      6.719462      6.900248
  Au     10.065435      4.825485      8.674666
  Au      7.704297      4.369637      7.313608
  Au      7.475346      7.344067      4.872747
  Au      5.466130      6.571944      3.171501
  Au      6.040851      4.979652      5.351578
  Cr      7.015506      8.562564      7.453924
15
Coordinates from ORCA-job pbe E -2945.834401621150
  Au      9.146271      9.237914      5.879993
  Au      7.961648      6.306868      9.511594
  Au      6.184880      8.188370     10.017957
  Au      5.641873      6.273687      7.877297
  Au      5.817383     10.752675      9.146843
  Au      4.647263      7.563024      5.551348
  Au      7.938201     11.037833      7.453748
  Au      4.337371      8.882732      7.814655
  Au      9.189763      6.719438      6.901130
  Au     10.066894      4.820213      8.668839
  Au      7.703708      4.369543      7.312490
  Au      7.474243      7.343758      4.873307
  Au      5.470591      6.564833      3.168143
  Au      6.041879      4.978750      5.352322
  Cr      7.015048      8.564717      7.454912
15
Coordinates from ORCA-job pbe E -2945.834406650484
  Au      9.145414      9.237541      5.880378
  Au      7.963333      6.311174      9.509370
  Au      6.180930      8.186157     10.018220
  Au      5.641183      6.271889      7.877269
  Au      5.819605     10.750051      9.144195
  Au      4.651413      7.566726      5.551497
  Au      7.939424     11.039387      7.452917
  Au      4.335488      8.880113      7.817752
  Au      9.190954      6.719127      6.899885
  Au     10.065993      4.820300      8.669630
  Au      7.703050      4.369739      7.313704
  Au      7.475659      7.343461      4.871835
  Au      5.469701      6.564954      3.169001
  Au      6.040847      4.979067      5.352918
  Cr      7.014020      8.564669      7.456007
15
Coordinates from ORCA-job pbe E -2945.834410050249
  Au      9.145543      9.237792      5.880054
  Au      7.964487      6.313360      9.507848
  Au      6.178756      8.185521     10.018518
  Au      5.641031      6.270815      7.877025
  Au      5.821215     10.748823      9.142570
  Au      4.654463      7.569210      5.551415
  Au      7.940269     11.039934      7.452347
  Au      4.334213      8.878692      7.819234
  Au      9.190346      6.719805      6.900815
  Au     10.065501      4.819547      8.669165
  Au      7.702966      4.369543      7.313801
  Au      7.474886      7.344168      4.872079
  Au      5.469584      6.563915      3.169354
  Au      6.040668      4.978598      5.353148
  Cr      7.013087      8.564630      7.457202
