17
E=  -1788.26577919;c=0;m=5
Au      7.634983922536490      4.770883699454410      7.159641916018250
Au      8.859847069413711      6.043949951844770      9.254097568997249
Au      6.259578625900830      6.984319856951920      8.384442969709550
Au      8.149220600265050     10.246976823311540     10.918107133183030
Au      9.940615882350199      8.068923961315720     10.838381915713020
Au      5.852351256869030      9.632050870769911      9.342576730186890
Au      7.085215733372740      7.629338005110630     10.972157970283879
Au     10.415182153798540     10.431732687672881      9.239628538094429
Au     10.841268543324810      7.711379301655620      8.223064890662251
Au      8.803092837175630      5.648976022780900      4.737532649057970
Au      7.867652024136690     11.328424375256141      8.293927495906630
Au      6.224056237717680      6.803513615656560      5.584959674158750
Au      8.293701746651211      8.545262379625269      4.508116927370820
Au      6.694602867511900      9.365901699057140      6.697696648590680
Au     10.835426866675180      7.464424432765080      5.494128249989820
Au      9.611869177853960      9.805406449979410      6.640155256666130
Cr      8.566329454446320      7.199129056792110      6.790264415410630
