13
E=  -1352.93268128;c=0;m=5
Au      7.965132484287430      8.968821050563109     10.906874497387509
Au      9.668475619380629      7.150649500589190      9.522606536739650
Au      6.785852123359740     11.299814123771821      6.740446949833180
Au      8.833803449190420     10.429781314634029      8.662958056473540
Au      6.665895030040780      6.579168096196830     10.057253787383431
Au      5.943620508738930      9.884798844897899      9.176404424531420
Au      5.506126875370750      8.736191306835620      6.712906535353580
Au      6.372521796112780      6.069302992179300      7.399356402600190
Au      8.801378421139059      9.358297120827549      6.126754214228830
Au      6.620583693162570      9.892117330329580      4.320297923050050
Au      9.216758705771779      6.606888302304040      6.893415835737280
Au      7.233538235895790      7.228478088643480      4.938012253692820
Cr      7.660777797549400      8.130214748227591      8.299750572988509
