11
Coordinates from ORCA-job pbe E -2621.737367194613
  Au      6.463804     10.417680      6.894567
  Au      8.705411      9.290488      7.794913
  Au      7.379656      5.451533      9.446815
  Au      9.959276      5.606543      9.939611
  Au      6.595569      5.217243      6.742240
  Au      6.490884      7.816042      6.857532
  Au     12.601472      6.214318      9.562112
  Au     10.801113      8.113664      8.712067
  Au     11.189104      5.596762      7.311912
  Au      9.181489      5.413715      5.625617
  Fe      8.737075      6.725513      7.738084
11
Coordinates from ORCA-job pbe E -2621.737040465686
  Au      6.391847     10.493758      6.858650
  Au      8.702630      9.328123      7.795410
  Au      7.394103      5.427438      9.458220
  Au      9.952153      5.596547      9.946150
  Au      6.596421      5.226985      6.732958
  Au      6.457725      7.798199      6.854216
  Au     12.627679      6.188373      9.577559
  Au     10.848824      8.104693      8.731144
  Au     11.197996      5.587774      7.300360
  Au      9.188769      5.386278      5.627368
  Fe      8.746705      6.725332      7.743435
11
Coordinates from ORCA-job pbe E -2621.738471772854
  Au      6.430907     10.455126      6.873025
  Au      8.701105      9.331067      7.796359
  Au      7.384130      5.415613      9.456834
  Au      9.959043      5.602848      9.943021
  Au      6.592847      5.217849      6.726457
  Au      6.455062      7.830428      6.859143
  Au     12.615177      6.203446      9.572467
  Au     10.837965      8.115774      8.726548
  Au     11.198280      5.592571      7.303749
  Au      9.184726      5.372378      5.623746
  Fe      8.745610      6.726402      7.744121
11
Coordinates from ORCA-job pbe E -2621.738256418191
  Au      6.467468     10.428173      6.895422
  Au      8.722206      9.320872      7.803964
  Au      7.385080      5.391360      9.450464
  Au      9.957756      5.603602      9.933023
  Au      6.589198      5.267779      6.725137
  Au      6.456980      7.823391      6.861049
  Au     12.595761      6.233311      9.564635
  Au     10.799482      8.143869      8.707912
  Au     11.192280      5.588355      7.308421
  Au      9.190042      5.340456      5.630893
  Fe      8.748600      6.722332      7.744551
11
Coordinates from ORCA-job pbe E -2621.739011084467
  Au      6.450564     10.457933      6.894149
  Au      8.710069      9.335198      7.796436
  Au      7.388346      5.382298      9.447473
  Au      9.954228      5.608556      9.933958
  Au      6.596866      5.244537      6.725354
  Au      6.450863      7.836139      6.859854
  Au     12.595430      6.224208      9.564848
  Au     10.821535      8.132436      8.715650
  Au     11.195231      5.591721      7.307579
  Au      9.190647      5.326978      5.635268
  Fe      8.751072      6.723498      7.744899
11
Coordinates from ORCA-job pbe E -2621.739127232016
  Au      6.440472     10.468875      6.891788
  Au      8.707041      9.341641      7.795797
  Au      7.385846      5.363172      9.438174
  Au      9.952809      5.605639      9.937998
  Au      6.594202      5.252726      6.721170
  Au      6.446157      7.849462      6.862462
  Au     12.613847      6.227009      9.574523
  Au     10.824950      8.140294      8.713667
  Au     11.199733      5.587285      7.303806
  Au      9.186225      5.303565      5.640441
  Fe      8.753571      6.723832      7.745643
11
Coordinates from ORCA-job pbe E -2621.739364424021
  Au      6.435046     10.489425      6.896961
  Au      8.706006      9.350697      7.795496
  Au      7.392263      5.322934      9.421227
  Au      9.954541      5.608045      9.932685
  Au      6.591610      5.274384      6.715331
  Au      6.443277      7.866948      6.868557
  Au     12.602407      6.243580      9.572112
  Au     10.827653      8.145199      8.707640
  Au     11.204399      5.585721      7.310134
  Au      9.185994      5.253312      5.657704
  Fe      8.761658      6.723256      7.747622
11
Coordinates from ORCA-job pbe E -2621.739477709497
  Au      6.443375     10.513302      6.919064
  Au      8.699827      9.357961      7.788679
  Au      7.411598      5.276166      9.398604
  Au      9.945805      5.613109      9.926529
  Au      6.580977      5.295215      6.703459
  Au      6.444650      7.886429      6.874032
  Au     12.592398      6.266304      9.572956
  Au     10.821470      8.156536      8.693006
  Au     11.203915      5.583392      7.313083
  Au      9.191931      5.191666      5.689251
  Fe      8.768906      6.723421      7.746807
11
Coordinates from ORCA-job pbe E -2621.739560402840
  Au      6.438076     10.522997      6.922012
  Au      8.698325      9.357984      7.786937
  Au      7.413253      5.262300      9.383100
  Au      9.956195      5.611712      9.928661
  Au      6.573712      5.304514      6.696872
  Au      6.446908      7.893171      6.877431
  Au     12.594066      6.272739      9.575770
  Au     10.817350      8.159297      8.686229
  Au     11.210264      5.578812      7.320939
  Au      9.185702      5.174961      5.701590
  Fe      8.771001      6.725015      7.745927
11
Coordinates from ORCA-job pbe E -2621.739610936123
  Au      6.429369     10.516100      6.916644
  Au      8.696625      9.358330      7.787291
  Au      7.420351      5.261165      9.372742
  Au      9.959988      5.607028      9.930721
  Au      6.563842      5.314867      6.690683
  Au      6.449340      7.896144      6.881138
  Au     12.599699      6.275314      9.579503
  Au     10.820737      8.155536      8.684708
  Au     11.214195      5.573832      7.325540
  Au      9.179126      5.175727      5.711577
  Fe      8.771580      6.729458      7.744923
11
Coordinates from ORCA-job pbe E -2621.739664374506
  Au      6.426901     10.522595      6.920166
  Au      8.699406      9.357909      7.786288
  Au      7.430236      5.258359      9.357415
  Au      9.965769      5.602782      9.932615
  Au      6.548420      5.310903      6.681263
  Au      6.450207      7.899690      6.883070
  Au     12.604467      6.285840      9.583175
  Au     10.817230      8.152863      8.680097
  Au     11.215759      5.564775      7.332019
  Au      9.175718      5.174092      5.727754
  Fe      8.770740      6.733694      7.741609
11
Coordinates from ORCA-job pbe E -2621.739690995413
  Au      6.432773     10.526176      6.929429
  Au      8.695953      9.364353      7.781509
  Au      7.437156      5.250627      9.343105
  Au      9.967840      5.604293      9.933233
  Au      6.538934      5.311169      6.676259
  Au      6.448315      7.898574      6.883039
  Au     12.606292      6.290277      9.585540
  Au     10.816392      8.154479      8.677516
  Au     11.218117      5.560575      7.336407
  Au      9.172907      5.164657      5.741188
  Fe      8.770173      6.738322      7.738245
11
Coordinates from ORCA-job pbe E -2621.739706418603
  Au      6.431658     10.525999      6.927470
  Au      8.698607      9.368955      7.783598
  Au      7.441950      5.244902      9.338819
  Au      9.966319      5.605473      9.931244
  Au      6.536459      5.311597      6.674502
  Au      6.445437      7.900293      6.884951
  Au     12.604872      6.289168      9.584664
  Au     10.817656      8.155957      8.678065
  Au     11.219082      5.560550      7.337944
  Au      9.171795      5.158933      5.746388
  Fe      8.771018      6.741674      7.737824
11
Coordinates from ORCA-job pbe E -2621.739716356849
  Au      6.431016     10.523145      6.927281
  Au      8.703577      9.373224      7.785397
  Au      7.442396      5.240858      9.333477
  Au      9.966428      5.607752      9.930133
  Au      6.534062      5.311522      6.672911
  Au      6.443702      7.899728      6.886564
  Au     12.604199      6.291203      9.584307
  Au     10.820507      8.156267      8.680585
  Au     11.216757      5.559341      7.337251
  Au      9.170945      5.154575      5.750907
  Fe      8.771264      6.745885      7.736658
11
Coordinates from ORCA-job pbe E -2621.739725326830
  Au      6.431907     10.520500      6.930636
  Au      8.707835      9.375773      7.786252
  Au      7.442743      5.240707      9.329868
  Au      9.964060      5.610173      9.929193
  Au      6.532039      5.308307      6.670771
  Au      6.444270      7.896477      6.886972
  Au     12.604747      6.292316      9.585118
  Au     10.822649      8.157199      8.681084
  Au     11.217364      5.559363      7.338665
  Au      9.166646      5.152265      5.752533
  Fe      8.770592      6.750420      7.734377
11
Coordinates from ORCA-job pbe E -2621.739731273811
  Au      6.432460     10.517940      6.928844
  Au      8.708132      9.376861      7.788275
  Au      7.442768      5.241272      9.327620
  Au      9.964019      5.612703      9.929377
  Au      6.530020      5.305901      6.669580
  Au      6.446188      7.893421      6.889382
  Au     12.605629      6.288079      9.585173
  Au     10.823886      8.158555      8.681734
  Au     11.216354      5.561374      7.338292
  Au      9.165508      5.152770      5.753903
  Fe      8.769889      6.754625      7.733288
11
Coordinates from ORCA-job pbe E -2621.739733392443
  Au      6.431791     10.517163      6.933113
  Au      8.708810      9.376185      7.787580
  Au      7.441517      5.242514      9.326136
  Au      9.962971      5.614089      9.929360
  Au      6.528641      5.305022      6.668269
  Au      6.449485      7.892505      6.889362
  Au     12.605446      6.289630      9.585900
  Au     10.825290      8.158733      8.680724
  Au     11.215433      5.561478      7.338586
  Au      9.165358      5.150156      5.754392
  Fe      8.770111      6.756027      7.732048
11
Coordinates from ORCA-job pbe E -2621.739733824596
  Au      6.432031     10.517271      6.931877
  Au      8.708197      9.376141      7.788683
  Au      7.441468      5.242738      9.325941
  Au      9.962846      5.613722      9.929147
  Au      6.528749      5.304903      6.667791
  Au      6.449837      7.892472      6.890640
  Au     12.605309      6.289627      9.585721
  Au     10.825611      8.158868      8.680538
  Au     11.215166      5.562009      7.338309
  Au      9.165300      5.149558      5.754618
  Fe      8.770339      6.756194      7.732205
