17
E=  -1788.23257322;c=0;m=5
Au     11.527065703820060      8.926238707556349     10.764112514852270
Au      8.688313295558549      9.020628560728420     10.900099439695520
Au     10.107397131310510     10.561149895364510      8.920791265059581
Au      7.436744321330180      9.771278750801290      8.489182177861551
Au      6.699622510865390      9.605769944845310      5.762603207876670
Au      9.509607196474921      9.468734380847360      6.421316819171770
Au      8.391222079632961      7.874234535697000      4.343481843557950
Au      5.299950471732300      8.086106152084540      7.714772735209590
Au      8.869114712475540      5.160790186701980      8.083949194752121
Au     10.327494274772810      6.744401149115130      6.048874489643140
Au      7.986559524429590      5.254675317265800      5.368173112959910
Au      7.264864784470540      7.031660240907810      9.552070505945681
Au      6.122792709723140      5.411872206629980      7.507106360688360
Au     11.568794053093340      8.286007469332979      8.046227078661589
Au     10.047164362044120      6.633982918476250     10.168478128369330
Au     11.659770630729790      5.470907984760940      8.170023938155939
Cr      7.667404957536410      7.431085668886330      6.833032467538700
