17
Coordinates from ORCA-job pbe E -3217.506069271057
  Au     11.527066      8.926239     10.764113
  Au      8.688313      9.020629     10.900099
  Au     10.107397     10.561150      8.920791
  Au      7.436744      9.771279      8.489182
  Au      6.699623      9.605770      5.762603
  Au      9.509607      9.468734      6.421317
  Au      8.391222      7.874235      4.343482
  Au      5.299950      8.086106      7.714773
  Au      8.869115      5.160790      8.083949
  Au     10.327494      6.744401      6.048874
  Au      7.986560      5.254675      5.368173
  Au      7.264865      7.031660      9.552071
  Au      6.122793      5.411872      7.507106
  Au     11.568794      8.286007      8.046227
  Au     10.047164      6.633983     10.168478
  Au     11.659771      5.470908      8.170024
  Cr      7.667405      7.431086      6.833032
17
Coordinates from ORCA-job pbe E -3217.510404305795
  Au     11.496812      8.909900     10.729473
  Au      8.680060      9.005194     10.866554
  Au     10.088623     10.534281      8.902026
  Au      7.443553      9.768458      8.491837
  Au      6.721995      9.635299      5.777468
  Au      9.513436      9.468569      6.427617
  Au      8.441337      7.887722      4.347778
  Au      5.305799      8.097927      7.752279
  Au      8.859756      5.176414      8.080884
  Au     10.312086      6.753752      6.054140
  Au      8.032933      5.229166      5.381367
  Au      7.271063      7.034138      9.555036
  Au      6.144250      5.394344      7.550946
  Au     11.533493      8.281733      8.033399
  Au     10.022733      6.641472     10.140828
  Au     11.622125      5.485335      8.154144
  Cr      7.683827      7.435818      6.848518
17
Coordinates from ORCA-job pbe E -3217.512435965510
  Au     11.488378      8.903662     10.718166
  Au      8.661907      8.998733     10.848826
  Au     10.070982     10.528305      8.884539
  Au      7.427863      9.793730      8.500144
  Au      6.746059      9.674500      5.785195
  Au      9.529827      9.492025      6.415128
  Au      8.487209      7.909423      4.330635
  Au      5.302859      8.107805      7.797963
  Au      8.855252      5.160049      8.081199
  Au     10.318283      6.749208      6.039960
  Au      8.070982      5.183329      5.372963
  Au      7.258516      7.026282      9.582844
  Au      6.144852      5.366916      7.596373
  Au     11.509253      8.282420      8.018433
  Au     10.000102      6.644009     10.124239
  Au     11.604885      5.479087      8.136646
  Cr      7.696673      7.440041      6.861042
17
Coordinates from ORCA-job pbe E -3217.513155699437
  Au     11.481065      8.888920     10.701300
  Au      8.664158      8.995163     10.832262
  Au     10.063432     10.514020      8.883223
  Au      7.413523      9.814206      8.505269
  Au      6.764209      9.676082      5.788854
  Au      9.540445      9.508159      6.401526
  Au      8.500024      7.918984      4.335637
  Au      5.314319      8.101553      7.812288
  Au      8.855010      5.150671      8.081316
  Au     10.322664      6.745192      6.033108
  Au      8.092203      5.176638      5.382999
  Au      7.246455      7.017120      9.601133
  Au      6.149978      5.368032      7.611833
  Au     11.482518      8.277341      8.017750
  Au      9.988729      6.655608     10.102277
  Au     11.588472      5.488527      8.132801
  Cr      7.706679      7.443309      6.870719
17
Coordinates from ORCA-job pbe E -3217.513724510903
  Au     11.487714      8.890564     10.707147
  Au      8.652018      8.995509     10.816366
  Au     10.047106     10.509853      8.874831
  Au      7.395807      9.834329      8.507279
  Au      6.785201      9.674966      5.799553
  Au      9.559894      9.525284      6.382541
  Au      8.509376      7.927044      4.342858
  Au      5.333441      8.097903      7.827041
  Au      8.844337      5.128287      8.080621
  Au     10.328265      6.740616      6.010224
  Au      8.100537      5.176340      5.388777
  Au      7.234623      6.999116      9.626210
  Au      6.155524      5.371753      7.623574
  Au     11.458256      8.276648      8.010168
  Au      9.972001      6.662806     10.084934
  Au     11.587732      5.482185      8.128021
  Cr      7.722051      7.446321      6.884152
17
Coordinates from ORCA-job pbe E -3217.514137515671
  Au     11.500082      8.886623     10.713114
  Au      8.652938      8.998229     10.807498
  Au     10.041144     10.505266      8.877517
  Au      7.380679      9.856226      8.512129
  Au      6.792138      9.662317      5.797753
  Au      9.577796      9.542790      6.362838
  Au      8.494410      7.928300      4.341317
  Au      5.343276      8.087876      7.823440
  Au      8.852576      5.111326      8.092006
  Au     10.349262      6.737353      6.004608
  Au      8.087898      5.187196      5.388349
  Au      7.221617      6.981192      9.650591
  Au      6.146262      5.378847      7.613569
  Au     11.439012      8.267265      8.015718
  Au      9.971243      6.672987     10.065179
  Au     11.588111      5.487251      8.133128
  Cr      7.735437      7.448481      6.895543
17
Coordinates from ORCA-job pbe E -3217.514395926577
  Au     11.504666      8.887017     10.716930
  Au      8.656182      8.999475     10.807832
  Au     10.043071     10.505179      8.881018
  Au      7.377017      9.862764      8.513494
  Au      6.788563      9.651914      5.793603
  Au      9.585012      9.551581      6.355103
  Au      8.490866      7.921848      4.344622
  Au      5.344772      8.082694      7.813974
  Au      8.843978      5.104598      8.090931
  Au     10.347452      6.738091      5.993678
  Au      8.083450      5.201079      5.395884
  Au      7.215636      6.974338      9.661777
  Au      6.149649      5.380171      7.606291
  Au     11.430805      8.267838      8.023514
  Au      9.972278      6.682900     10.060201
  Au     11.592644      5.478773      8.130212
  Cr      7.747840      7.449265      6.905231
17
Coordinates from ORCA-job pbe E -3217.514773272309
  Au     11.508469      8.895315     10.726748
  Au      8.646791      8.999011     10.805694
  Au     10.038174     10.509719      8.874784
  Au      7.372859      9.857849      8.504701
  Au      6.791141      9.639844      5.801070
  Au      9.589920      9.554831      6.344320
  Au      8.485987      7.916506      4.352462
  Au      5.358663      8.082343      7.808832
  Au      8.842142      5.101392      8.094919
  Au     10.351462      6.740584      5.990529
  Au      8.065135      5.224299      5.400803
  Au      7.209205      6.963682      9.667467
  Au      6.154633      5.385775      7.599202
  Au     11.419113      8.262338      8.028380
  Au      9.972731      6.689669     10.048170
  Au     11.592776      5.466780      8.121039
  Cr      7.774681      7.449587      6.925176
17
Coordinates from ORCA-job pbe E -3217.515195578627
  Au     11.500698      8.909993     10.733404
  Au      8.637991      9.001029     10.801081
  Au     10.031079     10.513679      8.870613
  Au      7.389139      9.851368      8.508405
  Au      6.789806      9.625928      5.804006
  Au      9.590371      9.555656      6.338875
  Au      8.477864      7.915267      4.355282
  Au      5.368553      8.079740      7.800328
  Au      8.841707      5.095609      8.097077
  Au     10.356651      6.740029      5.986520
  Au      8.043239      5.244398      5.400416
  Au      7.204931      6.958333      9.669038
  Au      6.152156      5.390858      7.592251
  Au     11.407067      8.258017      8.037776
  Au      9.975274      6.700305     10.037021
  Au     11.595268      5.451171      8.110494
  Cr      7.812089      7.448142      6.951710
17
Coordinates from ORCA-job pbe E -3217.515628520411
  Au     11.495017      8.916009     10.734687
  Au      8.637226      8.997835     10.812980
  Au     10.042124     10.523422      8.868830
  Au      7.391239      9.847534      8.503800
  Au      6.778126      9.613496      5.800364
  Au      9.585884      9.561607      6.341370
  Au      8.479873      7.915058      4.352414
  Au      5.367562      8.077788      7.785839
  Au      8.838761      5.098742      8.099537
  Au     10.355580      6.745010      5.987033
  Au      8.040192      5.248840      5.400655
  Au      7.200521      6.964144      9.671441
  Au      6.150632      5.387014      7.592562
  Au     11.400177      8.251162      8.041451
  Au      9.977507      6.702736     10.027187
  Au     11.581957      5.441326      8.093440
  Cr      7.851504      7.447802      6.980706
17
Coordinates from ORCA-job pbe E -3217.515864213537
  Au     11.482832      8.925102     10.734120
  Au      8.633041      8.997682     10.807790
  Au     10.038255     10.523761      8.866678
  Au      7.392346      9.851848      8.505141
  Au      6.782213      9.602940      5.807690
  Au      9.592538      9.569493      6.332379
  Au      8.471352      7.913495      4.353623
  Au      5.381575      8.077089      7.783639
  Au      8.834616      5.082990      8.103183
  Au     10.364813      6.744013      5.973098
  Au      8.028216      5.257944      5.399068
  Au      7.193565      6.955344      9.681359
  Au      6.147946      5.392420      7.586819
  Au     11.387501      8.248614      8.046235
  Au      9.975088      6.710881     10.016381
  Au     11.581825      5.435562      8.089143
  Cr      7.886161      7.450346      7.007949
17
Coordinates from ORCA-job pbe E -3217.516182620520
  Au     11.470349      8.930764     10.730617
  Au      8.627591      8.999799     10.807213
  Au     10.036036     10.529460      8.865469
  Au      7.395674      9.870219      8.518205
  Au      6.785492      9.586799      5.809480
  Au      9.595142      9.582775      6.321700
  Au      8.463237      7.907730      4.359318
  Au      5.394092      8.071379      7.776626
  Au      8.826251      5.062942      8.107202
  Au     10.373676      6.745138      5.953604
  Au      8.035232      5.263217      5.407528
  Au      7.180319      6.948874      9.693336
  Au      6.149887      5.399353      7.578909
  Au     11.376124      8.242783      8.037722
  Au      9.965954      6.706850     10.003441
  Au     11.567341      5.433915      8.077346
  Cr      7.931485      7.457526      7.046580
17
Coordinates from ORCA-job pbe E -3217.516527162971
  Au     11.446843      8.928114     10.712869
  Au      8.622434      8.993646     10.804590
  Au     10.036507     10.529194      8.858340
  Au      7.388723      9.887755      8.524145
  Au      6.793740      9.580682      5.821446
  Au      9.598411      9.594605      6.316582
  Au      8.447702      7.898623      4.363916
  Au      5.410474      8.075781      7.780074
  Au      8.818056      5.034365      8.113957
  Au     10.389132      6.746090      5.928478
  Au      8.050469      5.257744      5.414656
  Au      7.172781      6.946231      9.705608
  Au      6.149738      5.408138      7.564130
  Au     11.375609      8.248261      8.021062
  Au      9.949841      6.695981     10.005839
  Au     11.554332      5.445098      8.075955
  Cr      7.969089      7.469218      7.082649
17
Coordinates from ORCA-job pbe E -3217.516695397638
  Au     11.443246      8.916315     10.702163
  Au      8.617366      8.990232     10.805999
  Au     10.039577     10.532680      8.852686
  Au      7.376823      9.906388      8.526212
  Au      6.792870      9.570239      5.827297
  Au      9.598466      9.606192      6.303530
  Au      8.437098      7.885382      4.372244
  Au      5.420939      8.076494      7.775277
  Au      8.810528      5.020190      8.124145
  Au     10.399552      6.753785      5.913967
  Au      8.062552      5.262648      5.426390
  Au      7.157488      6.939291      9.713882
  Au      6.157947      5.414089      7.549063
  Au     11.372764      8.246686      8.010991
  Au      9.940261      6.687964     10.001398
  Au     11.538180      5.451844      8.070269
  Cr      8.008227      7.479105      7.118782
17
Coordinates from ORCA-job pbe E -3217.516767609270
  Au     11.443450      8.905082     10.693578
  Au      8.612159      8.990066     10.799789
  Au     10.034059     10.530391      8.847606
  Au      7.369933      9.919721      8.529893
  Au      6.798736      9.574797      5.832615
  Au      9.598552      9.608440      6.293358
  Au      8.430878      7.881191      4.376598
  Au      5.425643      8.078470      7.783987
  Au      8.807888      5.009769      8.129252
  Au     10.405800      6.755148      5.905588
  Au      8.076102      5.259674      5.431734
  Au      7.148995      6.932504      9.716435
  Au      6.160441      5.417645      7.540886
  Au     11.374641      8.250958      8.002077
  Au      9.931877      6.682785     10.005795
  Au     11.533142      5.458520      8.072206
  Cr      8.021586      7.484363      7.132899
17
Coordinates from ORCA-job pbe E -3217.516813466940
  Au     11.446046      8.894825     10.688860
  Au      8.606018      8.986573     10.791650
  Au     10.028071     10.525976      8.841615
  Au      7.363345      9.929894      8.532390
  Au      6.799156      9.572812      5.836805
  Au      9.604174      9.609890      6.282350
  Au      8.418190      7.874368      4.381864
  Au      5.432676      8.080728      7.785036
  Au      8.805258      5.004144      8.136075
  Au     10.413212      6.760519      5.900162
  Au      8.079295      5.262188      5.442238
  Au      7.144070      6.922272      9.721010
  Au      6.163561      5.425141      7.525296
  Au     11.374394      8.256999      7.996644
  Au      9.923438      6.682230     10.009098
  Au     11.528401      5.462077      8.070951
  Cr      8.044578      7.488888      7.152252
17
Coordinates from ORCA-job pbe E -3217.516809028533
  Au     11.451359      8.890198     10.686518
  Au      8.606253      8.989580     10.785617
  Au     10.024725     10.521250      8.838429
  Au      7.361479      9.935483      8.528859
  Au      6.798438      9.577439      5.842032
  Au      9.605326      9.605288      6.277954
  Au      8.414133      7.872025      4.384673
  Au      5.429998      8.081050      7.788484
  Au      8.805025      5.005100      8.142512
  Au     10.409809      6.760857      5.902258
  Au      8.089986      5.269661      5.432080
  Au      7.141897      6.915322      9.721340
  Au      6.161576      5.424255      7.521876
  Au     11.376743      8.259303      7.996043
  Au      9.923631      6.682773     10.014611
  Au     11.527831      5.462586      8.075238
  Cr      8.045672      7.487353      7.155771
17
Coordinates from ORCA-job pbe E -3217.516833563135
  Au     11.453588      8.889281     10.688868
  Au      8.607313      8.989315     10.784719
  Au     10.022317     10.519251      8.843361
  Au      7.358183      9.932226      8.530339
  Au      6.798708      9.583093      5.838108
  Au      9.605328      9.603341      6.277447
  Au      8.417822      7.875362      4.379765
  Au      5.428353      8.083983      7.791552
  Au      8.805552      5.011257      8.137799
  Au     10.409349      6.762179      5.905560
  Au      8.083081      5.257968      5.438817
  Au      7.144047      6.915323      9.716419
  Au      6.161578      5.423507      7.524614
  Au     11.381390      8.259827      7.998677
  Au      9.927746      6.682794     10.015723
  Au     11.531926      5.464452      8.076464
  Cr      8.037601      7.486364      7.146065
17
Coordinates from ORCA-job pbe E -3217.516842978185
  Au     11.451861      8.892798     10.690538
  Au      8.607495      8.987470     10.786609
  Au     10.024292     10.520096      8.842895
  Au      7.359427      9.931495      8.530483
  Au      6.798977      9.577957      5.835894
  Au      9.605446      9.605182      6.280787
  Au      8.415196      7.875068      4.380781
  Au      5.429161      8.081306      7.787317
  Au      8.805393      5.011232      8.137246
  Au     10.409018      6.762043      5.905345
  Au      8.081589      5.260415      5.439138
  Au      7.146083      6.918204      9.718625
  Au      6.160200      5.425348      7.523386
  Au     11.380661      8.258057      7.999171
  Au      9.928880      6.682908     10.014008
  Au     11.530634      5.463490      8.074432
  Cr      8.039568      7.486455      7.147641
17
Coordinates from ORCA-job pbe E -3217.516846036072
  Au     11.452307      8.892787     10.690354
  Au      8.607598      8.987557     10.785391
  Au     10.023703     10.518630      8.842586
  Au      7.358518      9.932714      8.530301
  Au      6.798492      9.578869      5.836858
  Au      9.605747      9.604374      6.280759
  Au      8.414501      7.874159      4.380944
  Au      5.428822      8.081922      7.787489
  Au      8.804963      5.012180      8.138241
  Au     10.408386      6.762879      5.905895
  Au      8.082681      5.260395      5.437866
  Au      7.146219      6.917323      9.718091
  Au      6.160052      5.425187      7.522585
  Au     11.382527      8.258412      7.999006
  Au      9.929750      6.682322     10.015420
  Au     11.530469      5.463638      8.074955
  Cr      8.039148      7.486176      7.147554
