19
E=  -2035.21500421;c=0;m=5
Au      3.471009198740680      6.537336646401150      7.951858313012670
Au      4.842172527661850      8.701171103933079      6.962056501035950
Au      6.227929800375980      6.146998617132960      7.465043213993990
Au      7.327382521221200      8.107685992571920      5.738926602454790
Au      6.781106833029700     10.730709962548319      6.776598723551250
Au      9.001881728397040      6.705274940418060      7.624355415065810
Au      9.463850067577029      9.599658985922179      7.158600413296920
Au      2.451007229339640      4.636996650696030      9.696981975277810
Au      5.179283756173340      5.106535877692280      9.875230134263161
Au      9.516818222059170      8.439893361733780      9.856351037685080
Au      7.107499351007920      9.136413952059510     11.158610083390450
Au      5.399835868810690     10.566072530370841      9.236601185700501
Au      2.978622718235210      9.159386606226059      8.997305233622200
Au      4.326413381968950      9.332258676268980     11.523833939419429
Au      3.088893107788990      6.975406402012720     10.869466738910591
Au      7.598162872394500      6.393182372423100     10.064770916268159
Au      5.705307530203580      6.876182714251220     12.066698340962020
Au      8.197992625577999     10.976785028007111      9.307707515367200
Fe      7.253803119436550      8.613087249330709      8.388191086721950
