11
Coordinates from ORCA-job pbe E -2621.728653253886
  Au      7.454109      5.581770      8.592139
  Au      9.829322      5.719595      9.779603
  Au     12.532882      6.061252     10.225316
  Au     11.396360      7.781617      8.441172
  Au     11.856282      4.918159      7.844133
  Au      7.588763      4.679815      5.889583
  Au     10.385392      4.315967      5.726593
  Au      9.204547      6.685104      4.660167
  Au      9.683910      8.686260      6.636286
  Au      7.142428      7.464324      6.471566
  Fe      9.502904      6.199735      7.219315
11
Coordinates from ORCA-job pbe E -2621.729303945334
  Au      7.432936      5.576800      8.599538
  Au      9.835684      5.717084      9.798177
  Au     12.550935      6.061264     10.235686
  Au     11.374721      7.807280      8.436195
  Au     11.842260      4.891585      7.827803
  Au      7.625221      4.691206      5.874206
  Au     10.388983      4.307617      5.725743
  Au      9.159230      6.675942      4.670470
  Au      9.684544      8.695254      6.638506
  Au      7.179366      7.470787      6.454641
  Fe      9.503021      6.198779      7.224907
11
Coordinates from ORCA-job pbe E -2621.729783497053
  Au      7.429780      5.574438      8.608599
  Au      9.849982      5.719260      9.798798
  Au     12.522647      6.061950     10.209718
  Au     11.367736      7.805009      8.452366
  Au     11.835869      4.885379      7.843532
  Au      7.643964      4.675493      5.877726
  Au     10.392907      4.297052      5.711623
  Au      9.145586      6.676092      4.660190
  Au      9.684632      8.711121      6.630125
  Au      7.192768      7.488323      6.464972
  Fe      9.511031      6.199483      7.228224
11
Coordinates from ORCA-job pbe E -2621.730075637531
  Au      7.439540      5.575504      8.610666
  Au      9.833578      5.717561      9.793315
  Au     12.530580      6.062932     10.214226
  Au     11.357576      7.816705      8.462653
  Au     11.830210      4.868004      7.847697
  Au      7.636739      4.666378      5.890245
  Au     10.404555      4.292857      5.698277
  Au      9.145568      6.680152      4.641607
  Au      9.694164      8.723252      6.620501
  Au      7.184341      7.489052      6.479755
  Fe      9.520050      6.201201      7.226929
11
Coordinates from ORCA-job pbe E -2621.730275032315
  Au      7.441001      5.576329      8.606982
  Au      9.830857      5.717079      9.793951
  Au     12.524027      6.063781     10.205301
  Au     11.343052      7.823909      8.466826
  Au     11.818659      4.855867      7.847538
  Au      7.646855      4.673569      5.901655
  Au     10.409634      4.296618      5.690367
  Au      9.137251      6.678395      4.645133
  Au      9.699978      8.724530      6.611764
  Au      7.196996      7.481152      6.488057
  Fe      9.528591      6.202369      7.228298
11
Coordinates from ORCA-job pbe E -2621.730433170612
  Au      7.436486      5.576045      8.602584
  Au      9.828824      5.715250      9.801890
  Au     12.521863      6.064313     10.200566
  Au     11.324504      7.837725      8.477144
  Au     11.805770      4.834726      7.850626
  Au      7.662722      4.671181      5.914276
  Au     10.410302      4.305187      5.668865
  Au      9.127127      6.676341      4.649421
  Au      9.702901      8.725559      6.588117
  Au      7.212202      7.482636      6.502034
  Fe      9.544200      6.204634      7.230347
11
Coordinates from ORCA-job pbe E -2621.730497934433
  Au      7.438520      5.575010      8.606195
  Au      9.828980      5.714261      9.806989
  Au     12.512035      6.065163     10.190346
  Au     11.308348      7.846262      8.482429
  Au     11.793092      4.820639      7.850961
  Au      7.665391      4.667313      5.921052
  Au     10.418986      4.313798      5.658162
  Au      9.123989      6.675703      4.651137
  Au      9.713880      8.724816      6.574819
  Au      7.214413      7.484012      6.510767
  Fe      9.559266      6.206621      7.233015
11
Coordinates from ORCA-job pbe E -2621.730532542884
  Au      7.442309      5.574567      8.609054
  Au      9.822772      5.712915      9.808414
  Au     12.511506      6.065185     10.191251
  Au     11.310066      7.848073      8.485655
  Au     11.795536      4.818463      7.853494
  Au      7.663368      4.668128      5.920776
  Au     10.417130      4.317574      5.652914
  Au      9.122088      6.675251      4.651714
  Au      9.713447      8.723031      6.568173
  Au      7.213161      7.482882      6.510783
  Fe      9.565517      6.207529      7.233643
11
Coordinates from ORCA-job pbe E -2621.730549110170
  Au      7.441757      5.574470      8.606957
  Au      9.824469      5.712644      9.811209
  Au     12.512844      6.064735     10.194824
  Au     11.314110      7.848019      8.484902
  Au     11.799368      4.820142      7.853305
  Au      7.658203      4.669700      5.918750
  Au     10.414113      4.318767      5.654520
  Au      9.124133      6.675875      4.650055
  Au      9.711325      8.720603      6.568821
  Au      7.209020      7.480856      6.508374
  Fe      9.567561      6.207788      7.234154
11
Coordinates from ORCA-job pbe E -2621.730561490400
  Au      7.442955      5.574264      8.605794
  Au      9.824747      5.712374      9.812888
  Au     12.513693      6.064909     10.195533
  Au     11.317444      7.847119      8.483659
  Au     11.801938      4.822537      7.852776
  Au      7.655129      4.671564      5.914952
  Au     10.410660      4.318567      5.658925
  Au      9.124171      6.676243      4.648832
  Au      9.708683      8.718279      6.572345
  Au      7.207038      7.479769      6.504321
  Fe      9.570443      6.207973      7.235848
11
Coordinates from ORCA-job pbe E -2621.730569612952
  Au      7.444992      5.574476      8.602400
  Au      9.825296      5.712274      9.813440
  Au     12.514064      6.065297     10.195402
  Au     11.319101      7.847223      8.483140
  Au     11.803169      4.823304      7.852912
  Au      7.653153      4.673611      5.912569
  Au     10.407119      4.316715      5.662606
  Au      9.123230      6.676559      4.647835
  Au      9.705876      8.717656      6.575940
  Au      7.206303      7.478143      6.501700
  Fe      9.574598      6.208341      7.237927
11
Coordinates from ORCA-job pbe E -2621.730572948022
  Au      7.446078      5.574498      8.599846
  Au      9.825673      5.712423      9.813073
  Au     12.515154      6.065936     10.194430
  Au     11.319440      7.848005      8.483691
  Au     11.802924      4.822595      7.852852
  Au      7.652669      4.673562      5.910937
  Au     10.405188      4.314329      5.664767
  Au      9.123036      6.676724      4.648625
  Au      9.703769      8.718501      6.578120
  Au      7.206384      7.478486      6.500314
  Fe      9.576585      6.208538      7.239218
11
Coordinates from ORCA-job pbe E -2621.730575423068
  Au      7.447579      5.574543      8.596873
  Au      9.826358      5.712336      9.812150
  Au     12.516235      6.066776     10.193019
  Au     11.318958      7.849985      8.483596
  Au     11.802967      4.820985      7.853780
  Au      7.651862      4.673525      5.909041
  Au     10.402553      4.310943      5.666165
  Au      9.124162      6.676656      4.650682
  Au      9.701810      8.720208      6.580860
  Au      7.205905      7.478822      6.499345
  Fe      9.578512      6.208818      7.240361
11
Coordinates from ORCA-job pbe E -2621.730577044048
  Au      7.448548      5.574150      8.595407
  Au      9.826853      5.712805      9.811632
  Au     12.516847      6.067207     10.191755
  Au     11.319125      7.851372      8.484877
  Au     11.802269      4.819412      7.852981
  Au      7.650861      4.673505      5.908175
  Au     10.401541      4.308573      5.667404
  Au      9.126365      6.676665      4.652745
  Au      9.699912      8.721900      6.581487
  Au      7.205384      7.478852      6.498726
  Fe      9.579195      6.209157      7.240683
