17
E=  -1798.56183387;c=0;m=6
Au      7.566519826781350      8.045688232031461     10.574330032260630
Au      5.954058877537480     10.059619497054531      9.159217296723559
Au      8.818388395158420     10.055560254501270      9.283000890855821
Au      6.410103272269840      5.615472213411520     11.137683541754960
Au      4.821855144761140      7.420720047490340      9.804357359119660
Au      9.110259336934829      7.426630213339350      8.161958836861031
Au      7.712835694827750      5.434217643252550      6.640813354165060
Au      4.431952487695150      8.669547327954829      5.149746237980770
Au      3.690952562826370      8.889253304430561      7.844725839664770
Au      6.473031914637010      6.928923083590010      4.549296071435230
Au      5.081276740964160      6.509981880021020      7.031421412070040
Au      7.580214405051800     11.594033707964011      7.309658375144300
Au      5.004347966137550     11.008206604114619      6.586915816347270
Au      7.148955695890670      9.614066036504759      5.261471088635660
Au      9.103396673607721      7.527195889714550      5.287404243655580
Au      9.674978340091080      9.861586241541350      6.620736378503490
Mn      6.921791064827690      6.243663193083290      8.804318914822231
