17
Coordinates from ORCA-job pbe E -3324.026219468629
  Au      7.566520      8.045688     10.574330
  Au      5.954059     10.059619      9.159217
  Au      8.818388     10.055560      9.283001
  Au      6.410103      5.615472     11.137684
  Au      4.821855      7.420720      9.804357
  Au      9.110259      7.426630      8.161959
  Au      7.712836      5.434218      6.640813
  Au      4.431952      8.669547      5.149746
  Au      3.690953      8.889253      7.844726
  Au      6.473032      6.928923      4.549296
  Au      5.081277      6.509982      7.031421
  Au      7.580214     11.594034      7.309658
  Au      5.004348     11.008207      6.586916
  Au      7.148956      9.614066      5.261471
  Au      9.103397      7.527196      5.287404
  Au      9.674978      9.861586      6.620736
  Mn      6.921791      6.243663      8.804319
17
Coordinates from ORCA-job pbe E -3324.031099038758
  Au      7.566173      8.067267     10.568265
  Au      5.960279     10.047753      9.146829
  Au      8.804654     10.043871      9.266995
  Au      6.399872      5.608756     11.180194
  Au      4.816647      7.441424      9.796727
  Au      9.114577      7.437061      8.152029
  Au      7.720518      5.438935      6.609829
  Au      4.451654      8.670909      5.162776
  Au      3.714213      8.886143      7.838926
  Au      6.476682      6.947817      4.558073
  Au      5.078567      6.519220      7.019408
  Au      7.572859     11.566016      7.312336
  Au      5.019783     10.985349      6.596029
  Au      7.145610      9.603593      5.281661
  Au      9.088627      7.542003      5.291144
  Au      9.652540      9.853452      6.622117
  Mn      6.921662      6.244794      8.803717
17
Coordinates from ORCA-job pbe E -3324.034259564145
  Au      7.559736      8.072935     10.577945
  Au      5.964618     10.026918      9.148820
  Au      8.802598     10.028045      9.257653
  Au      6.369180      5.654236     11.253182
  Au      4.815183      7.448990      9.807414
  Au      9.135598      7.442489      8.135438
  Au      7.737669      5.427037      6.558384
  Au      4.459127      8.674748      5.161092
  Au      3.726858      8.874040      7.833347
  Au      6.481107      6.963152      4.549705
  Au      5.068345      6.518421      6.993828
  Au      7.568861     11.555084      7.322828
  Au      5.021590     10.975632      6.608231
  Au      7.142594      9.598077      5.296285
  Au      9.083201      7.555464      5.280371
  Au      9.645372      9.854238      6.616862
  Mn      6.923284      6.234861      8.805671
17
Coordinates from ORCA-job pbe E -3324.035554150565
  Au      7.553123      8.076933     10.577985
  Au      5.971097      9.999825      9.148771
  Au      8.798193     10.002571      9.247847
  Au      6.341137      5.725146     11.295682
  Au      4.819523      7.456611      9.810433
  Au      9.148460      7.436995      8.115550
  Au      7.746838      5.428577      6.523356
  Au      4.465609      8.680075      5.160807
  Au      3.745177      8.854094      7.829677
  Au      6.484978      6.973595      4.551634
  Au      5.070463      6.511222      6.970958
  Au      7.561725     11.548334      7.336269
  Au      5.022618     10.970628      6.623923
  Au      7.137147      9.593778      5.318448
  Au      9.075166      7.563646      5.279553
  Au      9.637525      9.856774      6.613573
  Mn      6.926142      6.225561      8.802590
17
Coordinates from ORCA-job pbe E -3324.036212341552
  Au      7.553815      8.082515     10.593443
  Au      5.974338      9.989637      9.146635
  Au      8.806262      9.988704      9.236814
  Au      6.319980      5.741648     11.356603
  Au      4.810199      7.461282      9.823076
  Au      9.164686      7.420949      8.104502
  Au      7.754477      5.424304      6.497941
  Au      4.461419      8.693311      5.145582
  Au      3.749942      8.839604      7.817381
  Au      6.485205      6.978809      4.543247
  Au      5.069937      6.492386      6.955299
  Au      7.560157     11.564032      7.340834
  Au      5.014578     10.984492      6.626686
  Au      7.132023      9.597991      5.332121
  Au      9.077257      7.569576      5.272348
  Au      9.642272      9.872708      6.601773
  Mn      6.928371      6.202417      8.812772
17
Coordinates from ORCA-job pbe E -3324.036792880617
  Au      7.552597      8.080994     10.597636
  Au      5.981838      9.974274      9.133506
  Au      8.810255      9.967125      9.214777
  Au      6.305331      5.773322     11.380413
  Au      4.810655      7.461648      9.827940
  Au      9.165951      7.408469      8.096138
  Au      7.752866      5.428893      6.498003
  Au      4.464574      8.707635      5.139236
  Au      3.766364      8.820561      7.798861
  Au      6.481940      6.989615      4.545602
  Au      5.078316      6.482259      6.949096
  Au      7.557150     11.568793      7.347140
  Au      5.011234     10.988816      6.633066
  Au      7.124945      9.599317      5.355390
  Au      9.074633      7.580574      5.275683
  Au      9.636780      9.885840      6.593414
  Mn      6.929491      6.186230      8.821155
17
Coordinates from ORCA-job pbe E -3324.037395904896
  Au      7.550887      8.084852     10.595384
  Au      5.989042      9.961252      9.119676
  Au      8.811351      9.942769      9.197549
  Au      6.299198      5.785479     11.389034
  Au      4.812158      7.467361      9.827260
  Au      9.159465      7.393756      8.094143
  Au      7.745059      5.443811      6.512116
  Au      4.462124      8.718272      5.126311
  Au      3.783428      8.799656      7.786488
  Au      6.480837      6.996053      4.547420
  Au      5.090693      6.471937      6.952314
  Au      7.556089     11.582185      7.354662
  Au      5.002496     11.000285      6.638798
  Au      7.120077      9.598498      5.373155
  Au      9.072390      7.586685      5.278196
  Au      9.640476      9.898523      6.582096
  Mn      6.929147      6.172992      8.832453
17
Coordinates from ORCA-job pbe E -3324.037837877865
  Au      7.549745      8.079846     10.602805
  Au      5.995366      9.957495      9.100347
  Au      8.814726      9.929557      9.174329
  Au      6.299112      5.774214     11.395493
  Au      4.811454      7.463831      9.835225
  Au      9.150051      7.382052      8.097937
  Au      7.735234      5.460962      6.532174
  Au      4.459117      8.732741      5.110461
  Au      3.797491      8.788661      7.766727
  Au      6.479252      7.001674      4.548292
  Au      5.101568      6.464910      6.961284
  Au      7.554782     11.595028      7.354347
  Au      4.998055     11.012026      6.638152
  Au      7.114839      9.598334      5.391349
  Au      9.071156      7.591854      5.280085
  Au      9.645138      9.915458      6.567490
  Mn      6.927830      6.155722      8.850557
17
Coordinates from ORCA-job pbe E -3324.038089142197
  Au      7.546905      8.082725     10.603975
  Au      6.001529      9.947191      9.087220
  Au      8.814829      9.910931      9.158957
  Au      6.292208      5.781523     11.413445
  Au      4.811933      7.468251      9.838154
  Au      9.146912      7.371033      8.099747
  Au      7.731627      5.466409      6.539519
  Au      4.451688      8.746056      5.092942
  Au      3.811849      8.773462      7.755831
  Au      6.475147      7.006219      4.539574
  Au      5.107958      6.456159      6.965159
  Au      7.554361     11.605680      7.361139
  Au      4.990351     11.021037      6.643305
  Au      7.109486      9.598661      5.410367
  Au      9.077096      7.598160      5.275689
  Au      9.654183      9.933162      6.553986
  Mn      6.926856      6.137706      8.868047
17
Coordinates from ORCA-job pbe E -3324.038233463781
  Au      7.543879      8.083695     10.608845
  Au      6.005465      9.941879      9.077107
  Au      8.819537      9.896836      9.143277
  Au      6.286807      5.783445     11.430849
  Au      4.811288      7.470439      9.844382
  Au      9.143199      7.361859      8.098787
  Au      7.728530      5.482851      6.535786
  Au      4.449944      8.756666      5.074878
  Au      3.821237      8.760433      7.742256
  Au      6.476057      7.012959      4.541535
  Au      5.115300      6.449978      6.966575
  Au      7.556393     11.615797      7.364664
  Au      4.982440     11.028727      6.644518
  Au      7.104978      9.589503      5.433983
  Au      9.073146      7.602904      5.277982
  Au      9.660715      9.946444      6.537131
  Mn      6.926005      6.119951      8.884501
17
Coordinates from ORCA-job pbe E -3324.038325780734
  Au      7.543119      8.085561     10.605933
  Au      6.007492      9.941149      9.069951
  Au      8.820745      9.892612      9.134742
  Au      6.283692      5.790302     11.437207
  Au      4.812056      7.472365      9.842583
  Au      9.141677      7.355981      8.098819
  Au      7.729269      5.481299      6.533054
  Au      4.446055      8.765856      5.067042
  Au      3.825888      8.757049      7.735732
  Au      6.472656      7.013733      4.539186
  Au      5.118800      6.445566      6.967312
  Au      7.554477     11.616645      7.368254
  Au      4.981469     11.029808      6.648688
  Au      7.100239      9.585547      5.454734
  Au      9.077066      7.604594      5.279153
  Au      9.664588      9.958050      6.530340
  Mn      6.925633      6.108249      8.894326
17
Coordinates from ORCA-job pbe E -3324.038400771326
  Au      7.544090      8.087083     10.599372
  Au      6.006539      9.944350      9.070259
  Au      8.825723      9.892688      9.131773
  Au      6.283783      5.794962     11.435268
  Au      4.813111      7.472798      9.837012
  Au      9.138471      7.354175      8.100139
  Au      7.730888      5.476412      6.529059
  Au      4.443962      8.769617      5.061546
  Au      3.823052      8.755448      7.731956
  Au      6.469152      7.015830      4.539853
  Au      5.120943      6.445292      6.969271
  Au      7.556021     11.617144      7.369561
  Au      4.979213     11.029599      6.649150
  Au      7.097188      9.576908      5.474043
  Au      9.079215      7.607298      5.283018
  Au      9.668427      9.963985      6.525066
  Mn      6.925138      6.100778      8.900709
17
Coordinates from ORCA-job pbe E -3324.038440450166
  Au      7.545397      8.088561     10.589977
  Au      6.003996      9.950192      9.073560
  Au      8.829887      9.897909      9.131122
  Au      6.286025      5.795544     11.429013
  Au      4.815550      7.473932      9.828378
  Au      9.134433      7.353727      8.100560
  Au      7.732562      5.471469      6.524284
  Au      4.442480      8.769916      5.061098
  Au      3.818039      8.758505      7.730017
  Au      6.468244      7.013712      4.543744
  Au      5.123352      6.446946      6.970796
  Au      7.555771     11.617491      7.370468
  Au      4.978482     11.029703      6.650057
  Au      7.095144      9.568430      5.489576
  Au      9.079515      7.605019      5.288546
  Au      9.670823      9.966312      6.524284
  Mn      6.925218      6.096998      8.901576
17
Coordinates from ORCA-job pbe E -3324.038456459672
  Au      7.546741      8.087972     10.585113
  Au      6.002595      9.953125      9.077188
  Au      8.831495      9.900563      9.131131
  Au      6.287006      5.795611     11.427493
  Au      4.817150      7.472601      9.824493
  Au      9.131095      7.355226      8.101331
  Au      7.733208      5.467115      6.523340
  Au      4.443643      8.769045      5.061088
  Au      3.815079      8.760582      7.729313
  Au      6.468670      7.013496      4.544931
  Au      5.124316      6.449453      6.972333
  Au      7.555059     11.618458      7.370056
  Au      4.978763     11.031143      6.649719
  Au      7.094963      9.564570      5.494844
  Au      9.079109      7.604842      5.290456
  Au      9.670369      9.965768      6.523676
  Mn      6.925659      6.094795      8.900551
17
Coordinates from ORCA-job pbe E -3324.038474452100
  Au      7.548432      8.085305     10.579323
  Au      5.999987      9.956132      9.081670
  Au      8.832557      9.905023      9.130151
  Au      6.286739      5.796454     11.427725
  Au      4.820112      7.471924      9.818078
  Au      9.126274      7.356399      8.102042
  Au      7.733922      5.461969      6.522325
  Au      4.445682      8.768049      5.062093
  Au      3.813922      8.764092      7.728458
  Au      6.469559      7.011813      4.546232
  Au      5.126660      6.453808      6.974347
  Au      7.553048     11.621557      7.370194
  Au      4.978146     11.033387      6.650385
  Au      7.094005      9.560106      5.501434
  Au      9.079050      7.602552      5.292101
  Au      9.670101      9.965997      6.522455
  Mn      6.926725      6.089796      8.898041
17
Coordinates from ORCA-job pbe E -3324.038487943987
  Au      7.550467      8.083652     10.571602
  Au      5.999700      9.959230      9.086020
  Au      8.830014      9.907623      9.127389
  Au      6.286607      5.798928     11.431186
  Au      4.823567      7.468121      9.814276
  Au      9.119344      7.358540      8.102600
  Au      7.734111      5.457679      6.521537
  Au      4.447401      8.768311      5.060613
  Au      3.812897      8.769118      7.727621
  Au      6.471777      7.008872      4.545578
  Au      5.129351      6.456967      6.976679
  Au      7.551578     11.624450      7.371289
  Au      4.977757     11.038208      6.650980
  Au      7.094126      9.556541      5.508929
  Au      9.079717      7.600500      5.294139
  Au      9.667779      9.966338      6.521161
  Mn      6.928726      6.081286      8.895456
17
Coordinates from ORCA-job pbe E -3324.038501164560
  Au      7.551486      8.080076     10.571006
  Au      5.998484      9.959852      9.086287
  Au      8.828048      9.908873      9.126512
  Au      6.284403      5.801168     11.434701
  Au      4.825074      7.467406      9.812150
  Au      9.116910      7.358291      8.103705
  Au      7.734008      5.457255      6.521410
  Au      4.449504      8.768940      5.060577
  Au      3.815980      8.770530      7.728204
  Au      6.471663      7.008603      4.544424
  Au      5.130978      6.459770      6.978144
  Au      7.550429     11.627200      7.370840
  Au      4.976781     11.039151      6.650813
  Au      7.092790      9.555524      5.511748
  Au      9.080743      7.599452      5.293154
  Au      9.667836      9.967989      6.518432
  Mn      6.929801      6.074284      8.894949
17
Coordinates from ORCA-job pbe E -3324.038510762009
  Au      7.551880      8.077926     10.570836
  Au      5.998322      9.960662      9.085099
  Au      8.825453      9.908957      9.125428
  Au      6.282954      5.803196     11.437462
  Au      4.825860      7.466777      9.811844
  Au      9.115586      7.358350      8.104557
  Au      7.733808      5.459489      6.520381
  Au      4.449628      8.769299      5.060169
  Au      3.818276      8.771596      7.729767
  Au      6.471483      7.008132      4.542683
  Au      5.131457      6.460745      6.979049
  Au      7.551177     11.628316      7.370249
  Au      4.975674     11.039631      6.649984
  Au      7.092325      9.555596      5.513874
  Au      9.082396      7.599308      5.292914
  Au      9.667906      9.969004      6.517285
  Mn      6.930734      6.067382      8.895477
17
Coordinates from ORCA-job pbe E -3324.038518466699
  Au      7.552381      8.076583     10.568834
  Au      5.998102      9.963023      9.084438
  Au      8.822177      9.910037      9.126144
  Au      6.282410      5.804434     11.438823
  Au      4.827478      7.465526      9.811611
  Au      9.114131      7.358635      8.106158
  Au      7.733301      5.462001      6.518791
  Au      4.450011      8.768380      5.060943
  Au      3.819252      8.773914      7.731467
  Au      6.471220      7.008074      4.541089
  Au      5.131730      6.462539      6.980083
  Au      7.551867     11.629168      7.369034
  Au      4.975144     11.039610      6.647971
  Au      7.091658      9.555207      5.515759
  Au      9.083713      7.598971      5.292514
  Au      9.668490      9.968997      6.517257
  Mn      6.931852      6.059265      8.896139
17
Coordinates from ORCA-job pbe E -3324.038526212881
  Au      7.552454      8.074406     10.565806
  Au      5.997051      9.966648      9.084561
  Au      8.819799      9.912578      9.126524
  Au      6.282594      5.804646     11.438861
  Au      4.829576      7.465172      9.809824
  Au      9.111969      7.360236      8.107563
  Au      7.733029      5.464557      6.517158
  Au      4.449463      8.765519      5.062777
  Au      3.818359      8.777157      7.735211
  Au      6.472210      7.007885      4.539081
  Au      5.131508      6.464663      6.981576
  Au      7.553127     11.629350      7.366647
  Au      4.975066     11.040030      6.645689
  Au      7.092269      9.554812      5.517170
  Au      9.085110      7.599485      5.292876
  Au      9.668425      9.967140      6.518882
  Mn      6.932910      6.050079      8.896850
17
Coordinates from ORCA-job pbe E -3324.038534940124
  Au      7.552467      8.073369     10.561373
  Au      5.995872      9.970624      9.085674
  Au      8.818181      9.915951      9.128869
  Au      6.283486      5.803744     11.437885
  Au      4.832452      7.464807      9.808005
  Au      9.110050      7.362004      8.108812
  Au      7.732279      5.466614      6.515951
  Au      4.449318      8.760957      5.066688
  Au      3.815847      8.780780      7.737696
  Au      6.473068      7.008284      4.537487
  Au      5.131476      6.468225      6.982433
  Au      7.553615     11.629659      7.364361
  Au      4.975459     11.039672      6.643018
  Au      7.092553      9.554488      5.516454
  Au      9.085753      7.599455      5.292380
  Au      9.669284      9.964025      6.522260
  Mn      6.933758      6.041707      8.897710
17
Coordinates from ORCA-job pbe E -3324.038542881734
  Au      7.552088      8.072379     10.557499
  Au      5.994648      9.973383      9.087424
  Au      8.818146      9.919563      9.131415
  Au      6.284394      5.802399     11.437076
  Au      4.835007      7.465159      9.805852
  Au      9.107946      7.364252      8.108652
  Au      7.731532      5.467681      6.516148
  Au      4.449286      8.755889      5.071096
  Au      3.812053      8.783904      7.740329
  Au      6.475059      7.008922      4.535579
  Au      5.131976      6.472033      6.982620
  Au      7.553265     11.629266      7.362368
  Au      4.976706     11.039203      6.641581
  Au      7.093643      9.554897      5.513192
  Au      9.085670      7.599701      5.291066
  Au      9.669501      9.960146      6.526167
  Mn      6.933998      6.035587      8.898992
17
Coordinates from ORCA-job pbe E -3324.038548214945
  Au      7.552107      8.071741     10.555510
  Au      5.994200      9.973654      9.088727
  Au      8.819111      9.921515      9.133104
  Au      6.284349      5.802355     11.437932
  Au      4.836209      7.465208      9.804454
  Au      9.105840      7.366114      8.107339
  Au      7.730954      5.468072      6.517033
  Au      4.449544      8.753020      5.073931
  Au      3.809150      8.785222      7.741379
  Au      6.476545      7.009185      4.533764
  Au      5.133391      6.475414      6.982123
  Au      7.552626     11.628715      7.361946
  Au      4.977512     11.038454      6.641737
  Au      7.094486      9.555567      5.509786
  Au      9.085671      7.599607      5.289354
  Au      9.669441      9.957993      6.528449
  Mn      6.933782      6.032530      8.900487
17
Coordinates from ORCA-job pbe E -3324.038554283411
  Au      7.552677      8.070623     10.554048
  Au      5.994130      9.972648      9.089909
  Au      8.820428      9.923389      9.135108
  Au      6.283434      5.803577     11.440620
  Au      4.836895      7.464608      9.803024
  Au      9.102151      7.368641      8.104921
  Au      7.730278      5.468891      6.518261
  Au      4.450333      8.750753      5.076358
  Au      3.805763      8.786338      7.742742
  Au      6.478286      7.009149      4.530773
  Au      5.136328      6.480180      6.981356
  Au      7.551787     11.627517      7.362111
  Au      4.978420     11.037048      6.642791
  Au      7.095569      9.556368      5.505520
  Au      9.086161      7.599322      5.286625
  Au      9.668946      9.956340      6.529920
  Mn      6.933332      6.028974      8.902968
17
Coordinates from ORCA-job pbe E -3324.038559256569
  Au      7.553850      8.069317     10.553548
  Au      5.994455      9.970893      9.090443
  Au      8.821568      9.924720      9.137025
  Au      6.281978      5.805841     11.444159
  Au      4.836749      7.463285      9.802049
  Au      9.097764      7.371364      8.102407
  Au      7.729776      5.470403      6.518810
  Au      4.451216      8.749633      5.077740
  Au      3.802784      8.787044      7.744193
  Au      6.479374      7.008604      4.527386
  Au      5.139796      6.485235      6.980795
  Au      7.551486     11.625891      7.362685
  Au      4.978902     11.035154      6.644026
  Au      7.096526      9.556746      5.502119
  Au      9.087445      7.598898      5.283834
  Au      9.668351      9.955571      6.530355
  Mn      6.932899      6.025766      8.905481
