15
E=  -1570.55794812;c=0;m=5
Au      8.986371154425370      4.933286195144800      6.256554059107810
Au     10.059194333555130      7.179713181496430      7.547336720361830
Au      8.590226768607151      8.557263819575160      9.565347376900361
Au      7.756631183591310      5.912231827777740      8.671965211882240
Au      6.157683519500090      7.632014378345110     10.571714535039460
Au      4.923761267828980      6.145981045595490      8.554150198377769
Au      5.989452685159280     10.609826952836940      7.344153850736450
Au      8.506128139684330      9.487534694770330      6.888959133389980
Au      4.119642079823890      8.540056509761600      7.267019528766490
Au      9.016090382177399      7.465896723823440      4.898133432768840
Au      6.918206730921430      5.667659425733360      4.411192279929500
Au      6.369168456609320      8.307126854727681      5.428598078751510
Au      4.494301724088230      6.168883423590670      5.728049577434710
Au      6.324456954194680      4.282678284614940      6.858169769321200
Cr      6.482075239833130      8.290653042206220      8.170873777231600
