15
Coordinates from ORCA-job pbe E -2945.804839750206
  Au      8.986371      4.933286      6.256554
  Au     10.059194      7.179713      7.547337
  Au      8.590227      8.557264      9.565347
  Au      7.756631      5.912232      8.671965
  Au      6.157684      7.632014     10.571715
  Au      4.923761      6.145981      8.554150
  Au      5.989453     10.609827      7.344154
  Au      8.506128      9.487535      6.888959
  Au      4.119642      8.540057      7.267020
  Au      9.016090      7.465897      4.898133
  Au      6.918207      5.667659      4.411192
  Au      6.369168      8.307127      5.428598
  Au      4.494302      6.168883      5.728050
  Au      6.324457      4.282678      6.858170
  Cr      6.482075      8.290653      8.170874
15
Coordinates from ORCA-job pbe E -2945.809994560637
  Au      8.965157      4.959283      6.271380
  Au     10.035023      7.181981      7.539633
  Au      8.617237      8.542155      9.569852
  Au      7.752321      5.916154      8.663403
  Au      6.161504      7.587752     10.589235
  Au      4.927033      6.131351      8.547182
  Au      5.999856     10.626450      7.300008
  Au      8.513265      9.480723      6.875804
  Au      4.103680      8.532611      7.241093
  Au      8.993421      7.468705      4.918557
  Au      6.916232      5.689106      4.440987
  Au      6.374032      8.301170      5.435729
  Au      4.515371      6.172841      5.741601
  Au      6.331926      4.310663      6.867116
  Cr      6.487333      8.279862      8.160638
15
Coordinates from ORCA-job pbe E -2945.813851489024
  Au      8.958524      4.974082      6.286044
  Au     10.024535      7.196491      7.540572
  Au      8.649721      8.525345      9.595411
  Au      7.754224      5.918295      8.672118
  Au      6.181729      7.504735     10.614868
  Au      4.910473      6.115885      8.556095
  Au      6.012152     10.645138      7.212552
  Au      8.529432      9.497176      6.868201
  Au      4.075128      8.541473      7.207969
  Au      8.984491      7.483271      4.928571
  Au      6.908111      5.704705      4.454402
  Au      6.367036      8.307742      5.436105
  Au      4.516420      6.177136      5.758563
  Au      6.328039      4.321990      6.881956
  Cr      6.493375      8.267344      8.148792
15
Coordinates from ORCA-job pbe E -2945.816512206517
  Au      8.945873      4.993852      6.304197
  Au     10.005733      7.213491      7.542058
  Au      8.661179      8.504620      9.613712
  Au      7.757608      5.919895      8.682778
  Au      6.222685      7.417050     10.614908
  Au      4.892705      6.115376      8.563973
  Au      6.021007     10.632316      7.116541
  Au      8.540557      9.512453      6.874441
  Au      4.067714      8.553876      7.181779
  Au      8.971737      7.497298      4.944278
  Au      6.900874      5.725597      4.474310
  Au      6.358375      8.315521      5.434605
  Au      4.522509      6.185428      5.781477
  Au      6.324812      4.340380      6.897364
  Cr      6.500023      8.253654      8.135796
15
Coordinates from ORCA-job pbe E -2945.818414765977
  Au      8.940219      5.003382      6.318951
  Au      9.998645      7.232220      7.542423
  Au      8.667449      8.491859      9.637909
  Au      7.765790      5.911013      8.698322
  Au      6.267822      7.335266     10.620669
  Au      4.863455      6.119828      8.573713
  Au      6.020617     10.623334      7.024742
  Au      8.557615      9.534509      6.889322
  Au      4.058265      8.573364      7.163411
  Au      8.967650      7.510056      4.951202
  Au      6.894436      5.740401      4.482880
  Au      6.348909      8.326126      5.420311
  Au      4.519297      6.187158      5.801112
  Au      6.318986      4.347193      6.909786
  Cr      6.504235      8.245098      8.127464
15
Coordinates from ORCA-job pbe E -2945.819671046464
  Au      8.934842      5.011343      6.334119
  Au      9.990571      7.252491      7.539366
  Au      8.667854      8.479326      9.652755
  Au      7.776810      5.890938      8.706709
  Au      6.307613      7.271889     10.624731
  Au      4.836242      6.135875      8.581418
  Au      6.016816     10.613956      6.952574
  Au      8.567872      9.553407      6.913756
  Au      4.057790      8.587528      7.148691
  Au      8.963192      7.519493      4.958009
  Au      6.888271      5.755294      4.490090
  Au      6.345858      8.329975      5.395967
  Au      4.517612      6.186267      5.823111
  Au      6.314744      4.353925      6.919454
  Cr      6.507304      8.239101      8.121467
15
Coordinates from ORCA-job pbe E -2945.820470739495
  Au      8.934715      5.014527      6.346209
  Au      9.986790      7.274211      7.532015
  Au      8.668067      8.465938      9.662146
  Au      7.788919      5.863403      8.711085
  Au      6.334434      7.226431     10.633009
  Au      4.813249      6.159849      8.592915
  Au      6.013310     10.611516      6.899910
  Au      8.569528      9.573333      6.943297
  Au      4.060620      8.596813      7.133813
  Au      8.963932      7.527049      4.962312
  Au      6.881005      5.765779      4.491267
  Au      6.347334      8.330873      5.365855
  Au      4.513666      6.179801      5.845398
  Au      6.308518      4.355813      6.925087
  Cr      6.509303      8.235471      8.117901
15
Coordinates from ORCA-job pbe E -2945.820849554188
  Au      8.934888      5.017229      6.358385
  Au      9.983817      7.295154      7.522132
  Au      8.668346      8.447170      9.666465
  Au      7.798716      5.837914      8.716179
  Au      6.356683      7.189713     10.639517
  Au      4.797507      6.188968      8.607848
  Au      6.010006     10.611492      6.859476
  Au      8.562095      9.592973      6.973659
  Au      4.067088      8.601512      7.114536
  Au      8.966927      7.530159      4.967152
  Au      6.873505      5.775719      4.491935
  Au      6.350287      8.332851      5.337016
  Au      4.510339      6.170033      5.867177
  Au      6.302087      4.357735      6.926468
  Cr      6.511100      8.232185      8.114274
15
Coordinates from ORCA-job pbe E -2945.820943304867
  Au      8.936187      5.017494      6.361958
  Au      9.986299      7.302460      7.515415
  Au      8.670161      8.434890      9.668840
  Au      7.802403      5.826636      8.719974
  Au      6.360296      7.183101     10.647699
  Au      4.793410      6.203361      8.617036
  Au      6.006581     10.612762      6.846440
  Au      8.555469      9.601571      6.988295
  Au      4.071777      8.602761      7.101223
  Au      8.967761      7.528554      4.965808
  Au      6.869273      5.780108      4.490819
  Au      6.350992      8.336984      5.326970
  Au      4.507493      6.163656      5.874484
  Au      6.303255      4.355745      6.923636
  Cr      6.512036      8.230724      8.113621
15
Coordinates from ORCA-job pbe E -2945.821002737678
  Au      8.938382      5.020316      6.369451
  Au      9.988703      7.310761      7.509748
  Au      8.672467      8.416294      9.667742
  Au      7.801304      5.822551      8.727325
  Au      6.369106      7.175184     10.650671
  Au      4.790731      6.218236      8.621380
  Au      6.003210     10.621876      6.844835
  Au      8.547545      9.607158      7.000411
  Au      4.075415      8.603750      7.083735
  Au      8.967886      7.524366      4.963139
  Au      6.864116      5.782380      4.491735
  Au      6.352162      8.341945      5.317494
  Au      4.503977      6.152772      5.881202
  Au      6.305892      4.354042      6.923012
  Cr      6.512494      8.229175      8.110340
15
Coordinates from ORCA-job pbe E -2945.821048904405
  Au      8.939863      5.024350      6.371889
  Au      9.995002      7.313516      7.501318
  Au      8.676363      8.402883      9.670645
  Au      7.800152      5.818960      8.731143
  Au      6.364452      7.181332     10.659088
  Au      4.792412      6.226066      8.624311
  Au      5.998929     10.620779      6.841622
  Au      8.543540      9.606845      7.008969
  Au      4.080968      8.601984      7.066815
  Au      8.964739      7.522040      4.958717
  Au      6.857040      5.788126      4.494012
  Au      6.352947      8.348999      5.319129
  Au      4.500897      6.146738      5.884596
  Au      6.311955      4.352116      6.920690
  Cr      6.514132      8.226074      8.109273
15
Coordinates from ORCA-job pbe E -2945.821072270740
  Au      8.940551      5.027498      6.374622
  Au      9.998478      7.312811      7.500731
  Au      8.680153      8.398066      9.669990
  Au      7.796517      5.821964      8.731603
  Au      6.362777      7.186618     10.659850
  Au      4.793366      6.225011      8.622754
  Au      5.998586     10.623801      6.848639
  Au      8.542851      9.604473      7.007391
  Au      4.078894      8.603245      7.062785
  Au      8.963041      7.520670      4.955926
  Au      6.855416      5.788680      4.495990
  Au      6.353928      8.350559      5.322054
  Au      4.498240      6.142378      5.881262
  Au      6.316127      4.350107      6.920863
  Cr      6.514466      8.224925      8.107757
15
Coordinates from ORCA-job pbe E -2945.821082966789
  Au      8.940749      5.030453      6.375904
  Au     10.003525      7.313258      7.500765
  Au      8.683204      8.397492      9.670635
  Au      7.793193      5.826304      8.732438
  Au      6.361348      7.189631     10.657869
  Au      4.794976      6.221745      8.618501
  Au      5.998422     10.624337      6.854339
  Au      8.545017      9.601326      7.004356
  Au      4.076548      8.599794      7.059098
  Au      8.963822      7.520880      4.954475
  Au      6.852454      5.790026      4.499199
  Au      6.355433      8.351353      5.326305
  Au      4.494840      6.141399      5.881174
  Au      6.314683      4.350127      6.921718
  Cr      6.515177      8.222681      8.105443
15
Coordinates from ORCA-job pbe E -2945.821087835731
  Au      8.939900      5.032186      6.377557
  Au     10.003876      7.314057      7.501015
  Au      8.684616      8.396662      9.669866
  Au      7.793318      5.825374      8.731381
  Au      6.362763      7.189352     10.657319
  Au      4.794124      6.222455      8.619357
  Au      5.998044     10.623061      6.853536
  Au      8.544710      9.601192      7.004834
  Au      4.075546      8.600884      7.059065
  Au      8.964874      7.521270      4.955862
  Au      6.852864      5.790913      4.500630
  Au      6.355452      8.351167      5.325618
  Au      4.493291      6.140658      5.880439
  Au      6.314428      4.350040      6.921387
  Cr      6.515586      8.221534      8.104350
15
Coordinates from ORCA-job pbe E -2945.821092175263
  Au      8.938456      5.033494      6.378415
  Au     10.006233      7.315248      7.501598
  Au      8.685938      8.396027      9.670378
  Au      7.794444      5.823366      8.731261
  Au      6.364709      7.188705     10.656892
  Au      4.792969      6.224404      8.620738
  Au      5.997251     10.621437      6.852013
  Au      8.543826      9.602872      7.007165
  Au      4.074641      8.600952      7.057676
  Au      8.965920      7.521633      4.956189
  Au      6.852690      5.792520      4.502756
  Au      6.355905      8.350521      5.323386
  Au      4.491162      6.140071      5.880394
  Au      6.312901      4.350065      6.920834
  Cr      6.516346      8.219493      8.102522
