11
Coordinates from ORCA-job pbe E -2402.480036688020
  Au     10.832329      5.478449      8.972946
  Au     10.134975      4.515827      6.416748
  Au      8.969946      3.369234      8.797065
  Au      9.580934      7.739878      9.450655
  Au      8.250081      6.355104      5.410412
  Au      7.681709      9.724490      9.476185
  Au      7.901049      8.310906      7.131259
  Au      6.440268      4.573783      9.108951
  Au      6.722201      7.151400      9.537911
  Au      7.308123      3.933746      6.504061
  Cr      8.434479      5.846180      7.976557
11
Coordinates from ORCA-job pbe E -2402.481651612795
  Au     10.865247      5.457880      8.979397
  Au     10.134973      4.501542      6.412927
  Au      8.971725      3.357417      8.789216
  Au      9.606315      7.765113      9.474590
  Au      8.250960      6.346349      5.372363
  Au      7.676484      9.745942      9.484769
  Au      7.893455      8.346610      7.109905
  Au      6.418678      4.542476      9.117362
  Au      6.691188      7.164707      9.563637
  Au      7.313324      3.920422      6.500382
  Cr      8.433746      5.850538      7.978201
11
Coordinates from ORCA-job pbe E -2402.482263249765
  Au     10.873964      5.470241      8.989826
  Au     10.126176      4.500902      6.418931
  Au      8.970029      3.363913      8.781031
  Au      9.618739      7.765141      9.479967
  Au      8.247384      6.362883      5.365093
  Au      7.687951      9.686846      9.462362
  Au      7.892272      8.351110      7.097672
  Au      6.406118      4.550332      9.128582
  Au      6.680419      7.159814      9.569834
  Au      7.322156      3.922973      6.505804
  Cr      8.430887      5.864841      7.983647
11
Coordinates from ORCA-job pbe E -2402.482504931687
  Au     10.875863      5.474574      8.993060
  Au     10.116333      4.505931      6.427364
  Au      8.967498      3.375866      8.774770
  Au      9.646598      7.751184      9.486431
  Au      8.246132      6.368122      5.363328
  Au      7.691474      9.676333      9.458550
  Au      7.891799      8.346697      7.066319
  Au      6.402285      4.552578      9.131817
  Au      6.660314      7.136036      9.577881
  Au      7.330383      3.930765      6.513429
  Cr      8.427416      5.880913      7.989801
11
Coordinates from ORCA-job pbe E -2402.483069971835
  Au     10.879179      5.457414      8.986577
  Au     10.119096      4.526561      6.430622
  Au      8.964912      3.391023      8.788905
  Au      9.654318      7.751623      9.490019
  Au      8.249219      6.351286      5.356654
  Au      7.696178      9.656996      9.451333
  Au      7.890488      8.350036      7.058346
  Au      6.405256      4.535131      9.125082
  Au      6.652914      7.133537      9.582097
  Au      7.320566      3.948069      6.517014
  Cr      8.423970      5.897323      7.996098
11
Coordinates from ORCA-job pbe E -2402.483468641550
  Au     10.891946      5.437949      8.983481
  Au     10.121963      4.551724      6.434628
  Au      8.961215      3.409921      8.806273
  Au      9.671702      7.746192      9.494645
  Au      8.251550      6.335802      5.340582
  Au      7.700108      9.629928      9.441767
  Au      7.889788      8.351301      7.040393
  Au      6.401035      4.514192      9.122157
  Au      6.639977      7.122490      9.588252
  Au      7.309107      3.969646      6.522044
  Cr      8.417705      5.929853      8.008527
11
Coordinates from ORCA-job pbe E -2402.483581244805
  Au     10.901141      5.429473      8.983760
  Au     10.117532      4.559911      6.440173
  Au      8.959360      3.420063      8.806423
  Au      9.680443      7.742154      9.497258
  Au      8.251720      6.330594      5.330067
  Au      7.703644      9.620924      9.438256
  Au      7.888935      8.350181      7.029809
  Au      6.395561      4.502499      9.122238
  Au      6.632784      7.115826      9.591416
  Au      7.311444      3.977730      6.527100
  Cr      8.413529      5.949643      8.016248
11
Coordinates from ORCA-job pbe E -2402.483604481765
  Au     10.905213      5.428703      8.985357
  Au     10.115644      4.558875      6.440755
  Au      8.958981      3.420635      8.804637
  Au      9.683325      7.739993      9.497353
  Au      8.251255      6.330464      5.325940
  Au      7.702486      9.620790      9.438383
  Au      7.889083      8.350322      7.027945
  Au      6.392533      4.501664      9.123804
  Au      6.631422      7.113243      9.591580
  Au      7.313803      3.977295      6.527899
  Cr      8.412349      5.957014      8.019095
11
Coordinates from ORCA-job pbe E -2402.483607526304
  Au     10.904597      5.429112      8.984866
  Au     10.115046      4.557215      6.441510
  Au      8.959297      3.420058      8.802374
  Au      9.681935      7.740491      9.497786
  Au      8.250692      6.331589      5.327331
  Au      7.703373      9.622432      9.439198
  Au      7.888952      8.348944      7.027501
  Au      6.392725      4.501839      9.123007
  Au      6.631928      7.114320      9.591591
  Au      7.315436      3.975416      6.528241
  Cr      8.412114      5.957582      8.019346
11
Coordinates from ORCA-job pbe E -2402.483609773020
  Au     10.903102      5.430103      8.984597
  Au     10.114515      4.555455      6.441033
  Au      8.959549      3.418794      8.801176
  Au      9.681038      7.740477      9.497642
  Au      8.250496      6.331010      5.328916
  Au      7.703366      9.624382      9.439648
  Au      7.888660      8.349704      7.029397
  Au      6.393741      4.503344      9.122401
  Au      6.632525      7.114976      9.591009
  Au      7.316866      3.973584      6.527665
  Cr      8.412237      5.957169      8.019264
