17
Coordinates from ORCA-job pbe E -3436.759417823252
  Au      7.953595     10.000270      8.224605
  Au      8.040505      8.993449     10.814398
  Au      6.989809      6.404360     10.567374
  Au      9.011256      7.290848      8.791601
  Au      7.171105      5.113693      8.090565
  Au      7.475073      7.188250      4.798948
  Au      9.572114      8.546008      6.340461
  Au      9.401681      5.772526      6.473143
  Au      7.343114      9.961092      5.451139
  Au      7.204145      4.431893      5.358295
  Au      5.011797      5.906842      6.222283
  Au      4.950657      8.514226      5.044779
  Au      5.265863     10.386284      7.321371
  Au      4.680905      5.959357      9.081010
  Au      5.482922      8.726835      9.643230
  Au      3.688335      8.051843      7.531911
  Fe      6.531677      7.899811      7.261215
17
Coordinates from ORCA-job pbe E -3436.762362138992
  Au      7.946049      9.989792      8.219133
  Au      8.027033      8.986476     10.788312
  Au      6.984112      6.418273     10.538530
  Au      8.992665      7.295535      8.779684
  Au      7.165834      5.135045      8.084527
  Au      7.468874      7.192607      4.814705
  Au      9.547111      8.538482      6.349571
  Au      9.376364      5.792404      6.478624
  Au      7.331172      9.933654      5.474728
  Au      7.198783      4.459325      5.370209
  Au      5.018955      5.917616      6.227575
  Au      4.975882      8.495564      5.074665
  Au      5.289768     10.351268      7.328480
  Au      4.698712      5.974877      9.066386
  Au      5.490157      8.721857      9.627926
  Au      3.726179      8.050701      7.528139
  Fe      6.536900      7.894110      7.265134
17
Coordinates from ORCA-job pbe E -3436.762918405328
  Au      7.959981      9.986265      8.224857
  Au      8.017309      8.978612     10.782987
  Au      6.975038      6.433299     10.519204
  Au      8.977154      7.298232      8.771837
  Au      7.163381      5.152062      8.078912
  Au      7.480706      7.181922      4.818537
  Au      9.532341      8.530143      6.355634
  Au      9.356188      5.809106      6.476113
  Au      7.340120      9.926692      5.473009
  Au      7.204004      4.471798      5.372457
  Au      5.020745      5.903572      6.234054
  Au      4.971354      8.482022      5.060456
  Au      5.293242     10.364816      7.341576
  Au      4.712769      5.984556      9.059727
  Au      5.498194      8.712204      9.638284
  Au      3.728472      8.045396      7.538601
  Fe      6.543551      7.886891      7.270083
17
Coordinates from ORCA-job pbe E -3436.763504748136
  Au      7.971257      9.996040      8.227622
  Au      8.015214      8.990915     10.799919
  Au      6.965326      6.443598     10.522552
  Au      8.973616      7.303648      8.771450
  Au      7.159586      5.154866      8.073842
  Au      7.485500      7.181674      4.809451
  Au      9.522184      8.535752      6.354919
  Au      9.352254      5.813546      6.462878
  Au      7.328132      9.917046      5.477969
  Au      7.203473      4.462271      5.353602
  Au      5.010932      5.891433      6.232840
  Au      4.983274      8.464375      5.070845
  Au      5.308881     10.351423      7.351552
  Au      4.710770      5.992652      9.051456
  Au      5.493098      8.714511      9.646079
  Au      3.741892      8.053036      7.535157
  Fe      6.549159      7.880802      7.274194
17
Coordinates from ORCA-job pbe E -3436.763966548879
  Au      7.990074     10.007958      8.239763
  Au      8.017430      9.005052     10.812373
  Au      6.962763      6.457934     10.524406
  Au      8.966253      7.310122      8.775342
  Au      7.158164      5.158298      8.063505
  Au      7.493294      7.178210      4.794490
  Au      9.513667      8.546684      6.357245
  Au      9.342037      5.812707      6.452084
  Au      7.309719      9.918514      5.479665
  Au      7.197923      4.452350      5.338195
  Au      5.001961      5.866917      6.229284
  Au      4.995322      8.437622      5.075750
  Au      5.328351     10.342271      7.369967
  Au      4.705796      5.997083      9.039683
  Au      5.487069      8.718665      9.660459
  Au      3.746381      8.066446      7.523216
  Fe      6.558347      7.870752      7.280899
17
Coordinates from ORCA-job pbe E -3436.764150213428
  Au      8.003934     10.015661      8.244583
  Au      8.018864      9.013832     10.819496
  Au      6.958730      6.461482     10.519255
  Au      8.960419      7.312620      8.776388
  Au      7.157858      5.162641      8.058002
  Au      7.499120      7.177248      4.784433
  Au      9.506517      8.553008      6.358393
  Au      9.337104      5.818736      6.450967
  Au      7.301428      9.917175      5.480730
  Au      7.194088      4.446878      5.328795
  Au      4.993651      5.851221      6.230248
  Au      4.998158      8.415273      5.070757
  Au      5.341793     10.346103      7.386863
  Au      4.703293      6.001871      9.032081
  Au      5.482047      8.720610      9.669359
  Au      3.750286      8.072318      7.518587
  Fe      6.567260      7.860911      7.287390
17
Coordinates from ORCA-job pbe E -3436.764252705216
  Au      8.011498     10.018927      8.246186
  Au      8.017604      9.014915     10.817565
  Au      6.957474      6.460769     10.515584
  Au      8.957960      7.313255      8.779095
  Au      7.159072      5.163373      8.054470
  Au      7.502696      7.176393      4.778953
  Au      9.504248      8.557131      6.357150
  Au      9.335676      5.822387      6.452880
  Au      7.292881      9.915994      5.480861
  Au      7.192255      4.449965      5.328075
  Au      4.989032      5.842878      6.232400
  Au      4.998763      8.404526      5.066537
  Au      5.347483     10.349763      7.395406
  Au      4.699746      6.004365      9.030021
  Au      5.479779      8.721204      9.674366
  Au      3.753626      8.079165      7.514019
  Fe      6.574755      7.852575      7.292759
17
Coordinates from ORCA-job pbe E -3436.764362684631
  Au      8.016435     10.021051      8.242883
  Au      8.013925      9.013518     10.811130
  Au      6.954930      6.454785     10.511539
  Au      8.958754      7.312997      8.782362
  Au      7.160081      5.161474      8.052958
  Au      7.505539      7.177879      4.774372
  Au      9.503733      8.561453      6.353493
  Au      9.338682      5.828155      6.457301
  Au      7.284562      9.913147      5.481154
  Au      7.190467      4.458218      5.329941
  Au      4.982933      5.839453      6.237232
  Au      4.997791      8.394542      5.061094
  Au      5.352024     10.355392      7.403093
  Au      4.694057      6.007326      9.030641
  Au      5.476773      8.721282      9.676637
  Au      3.758724      8.085968      7.510367
  Fe      6.585139      7.840946      7.300130
17
Coordinates from ORCA-job pbe E -3436.764442531582
  Au      8.016845     10.021031      8.236190
  Au      8.009323      9.010507     10.803019
  Au      6.953295      6.447922     10.509293
  Au      8.963134      7.312278      8.784400
  Au      7.159926      5.157330      8.054152
  Au      7.507476      7.181380      4.773127
  Au      9.505312      8.563967      6.349569
  Au      9.342806      5.832549      6.461493
  Au      7.279218      9.910771      5.481135
  Au      7.189232      4.468728      5.333678
  Au      4.978199      5.841970      6.242501
  Au      4.997480      8.391847      5.058659
  Au      5.352510     10.357873      7.404467
  Au      4.688810      6.008693      9.033825
  Au      5.474207      8.720041      9.675492
  Au      3.761918      8.090630      7.508520
  Fe      6.594859      7.830071      7.306806
17
Coordinates from ORCA-job pbe E -3436.764497173137
  Au      8.013752     10.020049      8.229822
  Au      8.005253      9.008371     10.795994
  Au      6.953656      6.444506     10.508230
  Au      8.969135      7.311829      8.785137
  Au      7.158124      5.152641      8.057549
  Au      7.508850      7.186131      4.773765
  Au      9.508476      8.565233      6.346995
  Au      9.345192      5.833386      6.464036
  Au      7.279573      9.911597      5.480325
  Au      7.187625      4.476491      5.336288
  Au      4.975130      5.847901      6.246296
  Au      4.997992      8.394712      5.060615
  Au      5.349870     10.355699      7.401410
  Au      4.685482      6.008792      9.037361
  Au      5.472067      8.717958      9.671737
  Au      3.761865      8.090820      7.508791
  Fe      6.602507      7.821471      7.311976
17
Coordinates from ORCA-job pbe E -3436.764546214786
  Au      8.009061     10.019056      8.223709
  Au      8.002696      9.008970     10.791585
  Au      6.956241      6.443871     10.508019
  Au      8.976926      7.311786      8.783641
  Au      7.155060      5.147340      8.061521
  Au      7.510209      7.192096      4.776054
  Au      9.511641      8.564953      6.345920
  Au      9.343193      5.833084      6.465491
  Au      7.283962      9.914166      5.479193
  Au      7.184871      4.483952      5.337879
  Au      4.973553      5.854412      6.247963
  Au      5.001923      8.402125      5.066258
  Au      5.346521     10.349251      7.393084
  Au      4.683102      6.006448      9.041471
  Au      5.469355      8.715719      9.667349
  Au      3.756034      8.087409      7.510524
  Fe      6.610201      7.812948      7.316667
17
Coordinates from ORCA-job pbe E -3436.764583617292
  Au      8.003782     10.018802      8.221639
  Au      7.999808      9.010955     10.787439
  Au      6.959735      6.449043     10.505259
  Au      8.983787      7.313073      8.782999
  Au      7.150110      5.142778      8.066751
  Au      7.511800      7.197729      4.776314
  Au      9.516680      8.565258      6.346819
  Au      9.338793      5.829897      6.465920
  Au      7.293808      9.921673      5.476184
  Au      7.180868      4.485839      5.335805
  Au      4.971702      5.860183      6.248253
  Au      5.004841      8.410795      5.076974
  Au      5.341413     10.337493      7.384638
  Au      4.683292      6.004696      9.044266
  Au      5.467352      8.713495      9.661915
  Au      3.749466      8.080996      7.513876
  Fe      6.617313      7.804882      7.321275
17
Coordinates from ORCA-job pbe E -3436.764606203271
  Au      8.002252     10.020150      8.222264
  Au      8.000940      9.015455     10.790049
  Au      6.962621      6.453574     10.504129
  Au      8.986722      7.314414      8.781655
  Au      7.147982      5.140756      8.066835
  Au      7.511846      7.199856      4.776212
  Au      9.517130      8.564717      6.348702
  Au      9.331439      5.829506      6.465435
  Au      7.300291      9.924266      5.475217
  Au      7.178132      4.486614      5.333391
  Au      4.971676      5.859887      6.245705
  Au      5.009655      8.414887      5.082827
  Au      5.341961     10.331142      7.378555
  Au      4.683474      6.001786      9.044705
  Au      5.465747      8.714313      9.661256
  Au      3.741858      8.075235      7.516463
  Fe      6.620824      7.801028      7.322926
17
Coordinates from ORCA-job pbe E -3436.764616225761
  Au      8.003183     10.021622      8.224909
  Au      8.001782      9.017834     10.792309
  Au      6.962874      6.456486     10.501676
  Au      8.986060      7.315557      8.782681
  Au      7.147608      5.140562      8.065558
  Au      7.511363      7.199135      4.773973
  Au      9.517175      8.564940      6.350411
  Au      9.327883      5.830369      6.465675
  Au      7.302760      9.924978      5.474637
  Au      7.177038      4.484383      5.330698
  Au      4.971110      5.857220      6.244090
  Au      5.010018      8.414346      5.084866
  Au      5.342860     10.329094      7.378152
  Au      4.684578      6.001087      9.043793
  Au      5.465816      8.716008      9.662176
  Au      3.740822      8.073890      7.517546
  Fe      6.621622      7.800075      7.323177
17
Coordinates from ORCA-job pbe E -3436.764621616919
  Au      8.003449     10.022520      8.226503
  Au      8.002283      9.018854     10.793805
  Au      6.962794      6.458184     10.499253
  Au      8.985976      7.316599      8.784613
  Au      7.147603      5.139411      8.064178
  Au      7.510327      7.198362      4.771785
  Au      9.517545      8.565356      6.351722
  Au      9.325318      5.831758      6.466418
  Au      7.303989      9.924242      5.474679
  Au      7.176650      4.483333      5.329050
  Au      4.970371      5.855781      6.243305
  Au      5.009568      8.414193      5.085772
  Au      5.343476     10.328751      7.377258
  Au      4.685108      6.000426      9.043192
  Au      5.466260      8.718038      9.662758
  Au      3.741356      8.072757      7.518676
  Fe      6.622476      7.799022      7.323358
