15
E=  -1581.14257637;c=0;m=4
Au      7.019094869613710      5.380767558003060      8.028744605956710
Au      8.379329343526850      8.321351151882499      5.077858595506090
Au     10.633228236965840      7.942360608851620      6.752962660830220
Au      9.182281651171570      5.594614903224940      6.153077361443240
Au      6.588812032275440      6.125961930549150      5.234827602041980
Au      5.661039094608780      8.744973282714151      5.457815831084340
Au      4.512735848590280      6.601839313223770      7.004513931501630
Au      9.889126400922949      8.764185507009810      9.449285728482311
Au      7.101457132470410      9.450916010739761      9.254307998018509
Au      7.993519254229480      6.947849313967700     10.431395619008390
Au      5.363847984661390      7.071212625210990      9.622422429500309
Au      4.522796269623290      9.223616861481640      8.042356902705761
Au      8.995919650917211     10.187371208717320      7.151846401364850
Au      6.385824490618390     10.985755800710090      6.974130090658350
Mn      8.993730219804410      6.849247733713520      8.218362721897311
