17
E=  -1788.52010698;c=0;m=3
Au      6.832295739008180      8.908713141439019      6.024759506177010
Au     10.679367532746060      7.843739891195050      8.368720013819351
Au     11.938228336535060     10.035841572002809      7.348593712805870
Au      9.460155177227380      9.619784365787361      6.291623395235470
Au      8.911154700800299      6.839772883548010      6.392677576090770
Au      6.373704949633990      6.208956263941730      5.309784763119920
Au      7.460438779559880     11.189422236590911      7.570294778502850
Au      9.831134473321610     10.599887883651650      9.067499850095130
Au      9.378809731903500      8.394397012479271     10.839657729886969
Au      6.550122075244860      7.658868349266650     10.480910068179940
Au      7.358312886018190     10.321483900231700     10.280899224720571
Au      5.417660696345450      9.308505999640261      8.551609868532420
Au      6.078359141846130      5.122117420779000      9.605148970523450
Au      7.523355018766560      4.534195293051980      7.268625617832670
Au      8.730888598161339      6.143272442938130      9.259661867732460
Au      4.371099271193910      7.608998224828720      6.696151885205250
Cr      6.543243421687610      6.930695648627740      7.860225791539910
