15
E=  -1570.98498768;c=0;m=3
Au      9.090678595717810     10.287017633283460      6.090352225698020
Au     11.669428322831410      9.038087522217159      6.484548168353250
Au      6.253090186930800     10.669918269214030      5.764027669499260
Au      9.953211166433571      8.430679437981240      4.191311906363160
Au      7.234559708486240      8.177055507945690      5.087438386626160
Au      7.415004766756890     10.739049701478081      8.357646587626711
Au      5.737990379761210      8.501557931680690      7.475173165824480
Au      7.462384000578860      6.308607456480620      7.434560908955160
Au      7.495330783848710      8.249177524683709      9.656396422764880
Au      9.853369117366681      6.714790561942860      9.230324499651440
Au      9.939388677502450      4.959367609359690      7.130986549541980
Au      9.941069848389651      9.409964373538539      8.648967379288340
Au      8.759418766362961      5.895839440832850      4.782338910389280
Au     11.650735917669429      6.430590484819980      5.389753210733600
Cr      9.616495381363309      7.546909574541420      6.702411468684310
