13
E=  -1362.86272487;c=0;m=6
Au      7.822600728264290      9.045812333885770     11.410162747645041
Au      5.600886545902470      8.118177009285240     10.040221388215629
Au      7.355501892141550     10.350473757526411      8.900684069621841
Au     10.047812604903640      9.699744060066170      9.836276907206701
Au      7.202566907151720      5.744407549414230      9.500837683692589
Au      8.115292693586991      6.596963256996870      7.067346077791190
Au      7.339827645614600     10.296172453811520      6.129408353641680
Au      9.740574736504360      9.009672906344811      7.236644472983020
Au      8.702394032737541      8.179800634510761      4.820024102251650
Au      5.991936504970980      7.796987911049570      5.366263335497540
Au      5.091391244905120      9.435011583350800      7.545806229536910
Au      5.089563904409400      6.632310846982440      7.701714811104200
Mn      8.475382648907340      7.824808976775430      9.300739460812039
