13
Coordinates from ORCA-job pbe E -2780.661760562206
  Au      7.822601      9.045812     11.410163
  Au      5.600887      8.118177     10.040221
  Au      7.355502     10.350474      8.900684
  Au     10.047813      9.699744      9.836277
  Au      7.202567      5.744408      9.500838
  Au      8.115293      6.596963      7.067346
  Au      7.339828     10.296172      6.129408
  Au      9.740575      9.009673      7.236644
  Au      8.702394      8.179801      4.820024
  Au      5.991937      7.796988      5.366263
  Au      5.091391      9.435012      7.545806
  Au      5.089564      6.632311      7.701715
  Mn      8.475383      7.824809      9.300739
13
Coordinates from ORCA-job pbe E -2780.667043414047
  Au      7.794873      9.065966     11.420063
  Au      5.602395      8.119795     10.024690
  Au      7.359793     10.333681      8.892436
  Au     10.067668      9.738473      9.834071
  Au      7.193565      5.716940      9.474724
  Au      8.094711      6.598789      7.044767
  Au      7.337773     10.274332      6.162096
  Au      9.751860      9.012796      7.229773
  Au      8.693870      8.168497      4.836442
  Au      5.993921      7.797350      5.388885
  Au      5.119615      9.417981      7.559261
  Au      5.092962      6.654125      7.697925
  Mn      8.472728      7.831619      9.290996
13
Coordinates from ORCA-job pbe E -2780.670982098835
  Au      7.769607      9.098747     11.436863
  Au      5.604909      8.117327     10.025395
  Au      7.375683     10.323363      8.905256
  Au     10.078395      9.794739      9.830566
  Au      7.183169      5.670752      9.439900
  Au      8.063480      6.591232      7.016835
  Au      7.348033     10.261425      6.186406
  Au      9.783190      9.017853      7.227334
  Au      8.700083      8.152876      4.836968
  Au      5.986993      7.793269      5.389059
  Au      5.133764      9.407347      7.577949
  Au      5.079819      6.659720      7.701846
  Mn      8.468607      7.841695      9.281753
13
Coordinates from ORCA-job pbe E -2780.673689790044
  Au      7.755111      9.131835     11.436856
  Au      5.614701      8.113127     10.024681
  Au      7.391186     10.317528      8.916693
  Au     10.062805      9.838560      9.816011
  Au      7.180110      5.634278      9.391430
  Au      8.027489      6.587994      6.997699
  Au      7.361524     10.243486      6.216812
  Au      9.805826      9.017315      7.229203
  Au      8.706793      8.139086      4.857785
  Au      5.986446      7.790002      5.396435
  Au      5.152605      9.398433      7.596007
  Au      5.072113      6.666777      7.708944
  Mn      8.459024      7.851922      9.267574
13
Coordinates from ORCA-job pbe E -2780.675694446117
  Au      7.745982      9.165588     11.444116
  Au      5.623705      8.106079     10.033717
  Au      7.398877     10.328265      8.927767
  Au     10.055914      9.871408      9.816325
  Au      7.184138      5.596159      9.344262
  Au      7.991689      6.581535      6.981023
  Au      7.372861     10.231040      6.235389
  Au      9.836309      9.017529      7.229598
  Au      8.720775      8.126524      4.866875
  Au      5.979571      7.782230      5.391817
  Au      5.161153      9.394134      7.609214
  Au      5.056207      6.667338      7.719131
  Mn      8.448551      7.862514      9.256896
13
Coordinates from ORCA-job pbe E -2780.677258785234
  Au      7.741070      9.197521     11.443115
  Au      5.636991      8.097660     10.042407
  Au      7.398690     10.345722      8.934648
  Au     10.044830      9.887693      9.812231
  Au      7.193622      5.563335      9.304276
  Au      7.957810      6.580278      6.963753
  Au      7.385090     10.213943      6.253180
  Au      9.859255      9.016091      7.234848
  Au      8.733384      8.120325      4.883460
  Au      5.976928      7.775866      5.388079
  Au      5.171722      9.388764      7.619717
  Au      5.042512      6.670810      7.731440
  Mn      8.433830      7.872335      9.244976
13
Coordinates from ORCA-job pbe E -2780.678594012958
  Au      7.736986      9.227600     11.442607
  Au      5.651189      8.088202     10.052264
  Au      7.392501     10.370739      8.939821
  Au     10.039208      9.890342      9.814094
  Au      7.207240      5.533707      9.273904
  Au      7.928354      6.578388      6.949171
  Au      7.396537     10.197874      6.264436
  Au      9.881282      9.015280      7.240662
  Au      8.748530      8.119921      4.890652
  Au      5.969864      7.768759      5.380028
  Au      5.179393      9.383152      7.627763
  Au      5.029011      6.674029      7.745448
  Mn      8.415638      7.882351      9.235279
13
Coordinates from ORCA-job pbe E -2780.679802135134
  Au      7.735012      9.254372     11.441537
  Au      5.666854      8.077749     10.061947
  Au      7.384236     10.399904      8.944332
  Au     10.032207      9.882633      9.815048
  Au      7.224194      5.508628      9.253029
  Au      7.902921      6.580249      6.934000
  Au      7.410202     10.179135      6.273551
  Au      9.895180      9.013625      7.245806
  Au      8.760487      8.122582      4.898743
  Au      5.964386      7.763134      5.371134
  Au      5.188332      9.378788      7.632951
  Au      5.019527      6.676449      7.758196
  Mn      8.392194      7.893095      9.225856
13
Coordinates from ORCA-job pbe E -2780.680915344846
  Au      7.731589      9.278485     11.440664
  Au      5.682329      8.066900     10.069353
  Au      7.374459     10.431447      8.947458
  Au     10.025717      9.867116      9.817082
  Au      7.244475      5.489412      9.236872
  Au      7.883185      6.579894      6.923550
  Au      7.423645     10.161302      6.282369
  Au      9.907034      9.010733      7.251723
  Au      8.771986      8.126917      4.898115
  Au      5.954916      7.758774      5.361926
  Au      5.197942      9.374819      7.638518
  Au      5.014658      6.679634      7.771120
  Mn      8.363797      7.904910      9.217380
13
Coordinates from ORCA-job pbe E -2780.681932302846
  Au      7.729066      9.299729     11.442278
  Au      5.695522      8.055279     10.078505
  Au      7.365778     10.464541      8.953427
  Au     10.019354      9.849564      9.819177
  Au      7.267651      5.474017      9.226551
  Au      7.868229      6.583686      6.910328
  Au      7.439995     10.141453      6.289782
  Au      9.912431      9.004702      7.253650
  Au      8.778963      8.129315      4.898531
  Au      5.947532      7.755757      5.352920
  Au      5.207054      9.372968      7.642386
  Au      5.013000      6.681334      7.779744
  Mn      8.331156      7.917999      9.208851
13
Coordinates from ORCA-job pbe E -2780.682852417773
  Au      7.722919      9.320569     11.442729
  Au      5.704466      8.043784     10.085788
  Au      7.356896     10.495397      8.957587
  Au     10.013691      9.831872      9.818391
  Au      7.293188      5.463159      9.215627
  Au      7.858903      6.583793      6.900851
  Au      7.455345     10.123362      6.302922
  Au      9.919456      8.994311      7.257967
  Au      8.785373      8.131299      4.890688
  Au      5.937194      7.754875      5.346252
  Au      5.217687      9.371941      7.649463
  Au      5.015224      6.683971      7.788176
  Mn      8.295392      7.932010      9.199689
13
Coordinates from ORCA-job pbe E -2780.683709014336
  Au      7.716797      9.339977     11.444235
  Au      5.707199      8.031997     10.096654
  Au      7.350302     10.525172      8.966106
  Au     10.007240      9.818535      9.818615
  Au      7.319868      5.455171      9.205594
  Au      7.853769      6.586852      6.888120
  Au      7.473839     10.103000      6.314980
  Au      9.924773      8.978705      7.257503
  Au      8.788397      8.131087      4.882294
  Au      5.929031      7.754791      5.342286
  Au      5.226927      9.371388      7.657515
  Au      5.019638      6.686738      7.793073
  Mn      8.257951      7.946930      9.189155
13
Coordinates from ORCA-job pbe E -2780.684524703869
  Au      7.708399      9.358540     11.444309
  Au      5.702167      8.021173     10.110112
  Au      7.343506     10.551967      8.972247
  Au     10.002504      9.807087      9.813601
  Au      7.347451      5.449843      9.195247
  Au      7.853974      6.588677      6.875470
  Au      7.490272     10.084443      6.332405
  Au      9.932265      8.957935      7.259747
  Au      8.790639      8.130472      4.870160
  Au      5.921491      7.756565      5.341007
  Au      5.236422      9.373116      7.668083
  Au      5.026200      6.688271      7.796698
  Mn      8.220443      7.962254      9.177046
13
Coordinates from ORCA-job pbe E -2780.685330125727
  Au      7.699678      9.374654     11.441598
  Au      5.690096      8.011599     10.126902
  Au      7.339150     10.575375      8.980685
  Au      9.993917      9.800716      9.811930
  Au      7.372315      5.448660      9.182876
  Au      7.859329      6.590648      6.862190
  Au      7.507706     10.064501      6.347904
  Au      9.940825      8.932390      7.257412
  Au      8.791647      8.129995      4.854817
  Au      5.915625      7.758741      5.343984
  Au      5.245058      9.373286      7.682436
  Au      5.036317      6.692333      7.800764
  Mn      8.184066      7.977444      9.162632
13
Coordinates from ORCA-job pbe E -2780.686115255388
  Au      7.689717      9.388831     11.438718
  Au      5.672128      8.004030     10.147455
  Au      7.333940     10.598378      8.986671
  Au      9.989754      9.791841      9.802069
  Au      7.395388      5.448622      9.170871
  Au      7.867794      6.593444      6.848182
  Au      7.522104     10.046596      6.365014
  Au      9.949742      8.905859      7.259383
  Au      8.792396      8.130377      4.840731
  Au      5.912655      7.761006      5.348351
  Au      5.252458      9.375190      7.697238
  Au      5.048563      6.693114      7.803708
  Mn      8.149093      7.993056      9.147738
13
Coordinates from ORCA-job pbe E -2780.686877615355
  Au      7.681108      9.400230     11.432619
  Au      5.652490      7.998478     10.169397
  Au      7.330986     10.620389      8.990996
  Au      9.978332      9.784717      9.797969
  Au      7.412704      5.450048      9.158840
  Au      7.880233      6.595012      6.834246
  Au      7.535445     10.029149      6.379979
  Au      9.959735      8.877716      7.257289
  Au      8.793270      8.133150      4.823807
  Au      5.910053      7.763216      5.354338
  Au      5.260604      9.375917      7.714812
  Au      5.064556      6.694782      7.810084
  Mn      8.116216      8.007539      9.131755
13
Coordinates from ORCA-job pbe E -2780.687615676492
  Au      7.671393      9.411820     11.426758
  Au      5.633230      7.994641     10.190570
  Au      7.327164     10.646365      8.994998
  Au      9.970780      9.769844      9.788868
  Au      7.427720      5.451033      9.145369
  Au      7.892676      6.597451      6.821417
  Au      7.547271     10.012742      6.392949
  Au      9.968561      8.852814      7.258298
  Au      8.794303      8.137549      4.809966
  Au      5.908340      7.763650      5.360749
  Au      5.267365      9.375067      7.731841
  Au      5.083859      6.694723      7.817346
  Mn      8.083070      8.022644      9.117003
13
Coordinates from ORCA-job pbe E -2780.688335903730
  Au      7.663185      9.422313     11.420024
  Au      5.615529      7.992721     10.212104
  Au      7.324781     10.673641      8.995401
  Au      9.958718      9.753734      9.785100
  Au      7.438987      5.449859      9.134430
  Au      7.907479      6.599019      6.808014
  Au      7.556800      9.998538      6.405705
  Au      9.976739      8.828569      7.256277
  Au      8.795112      8.143287      4.795300
  Au      5.905935      7.764275      5.366246
  Au      5.275311      9.375201      7.748664
  Au      5.105544      6.692707      7.826066
  Mn      8.051611      8.036481      9.102800
13
Coordinates from ORCA-job pbe E -2780.689026663412
  Au      7.653025      9.435791     11.412778
  Au      5.599320      7.991879     10.230408
  Au      7.322341     10.702870      8.996845
  Au      9.950099      9.731770      9.779330
  Au      7.450206      5.447215      9.121108
  Au      7.920826      6.600811      6.796562
  Au      7.565850      9.984982      6.417363
  Au      9.983527      8.807113      7.255855
  Au      8.795415      8.149711      4.783145
  Au      5.902947      7.763926      5.372432
  Au      5.282421      9.372940      7.765085
  Au      5.130172      6.690894      7.835257
  Mn      8.019582      8.050442      9.089962
13
Coordinates from ORCA-job pbe E -2780.689681520835
  Au      7.642990      9.450216     11.406050
  Au      5.583760      7.992116     10.248283
  Au      7.321220     10.731570      8.995951
  Au      9.940447      9.709684      9.777415
  Au      7.462292      5.441929      9.109247
  Au      7.934044      6.602643      6.784727
  Au      7.573629      9.973138      6.429110
  Au      9.989220      8.785647      7.254056
  Au      8.794588      8.155743      4.771028
  Au      5.899063      7.764610      5.377647
  Au      5.289899      9.371929      7.780544
  Au      5.156183      6.687929      7.844168
  Mn      7.988395      8.063189      9.077903
13
Coordinates from ORCA-job pbe E -2780.690294931341
  Au      7.630936      9.467356     11.399101
  Au      5.568135      7.992607     10.264277
  Au      7.320794     10.758659      8.995287
  Au      9.932496      9.686149      9.774639
  Au      7.478658      5.435342      9.096611
  Au      7.944699      6.605066      6.773921
  Au      7.581714      9.961784      6.440510
  Au      9.993835      8.763739      7.253890
  Au      8.792919      8.161549      4.759831
  Au      5.894453      7.766472      5.382692
  Au      5.296891      9.370598      7.795604
  Au      5.183455      6.685858      7.853008
  Mn      7.956748      8.075166      9.066757
13
Coordinates from ORCA-job pbe E -2780.690866461256
  Au      7.618167      9.484690     11.392867
  Au      5.552140      7.993834     10.279958
  Au      7.322069     10.783953      8.993001
  Au      9.923197      9.663307      9.774778
  Au      7.499213      5.427115      9.085100
  Au      7.953297      6.608171      6.762882
  Au      7.589490      9.951545      6.450439
  Au      9.997649      8.740840      7.253772
  Au      8.790173      8.166653      4.748195
  Au      5.889055      7.769812      5.386967
  Au      5.303572      9.370551      7.809662
  Au      5.211748      6.684286      7.862095
  Mn      7.925961      8.085586      9.056414
13
Coordinates from ORCA-job pbe E -2780.691391091002
  Au      7.603127      9.502574     11.386736
  Au      5.535440      7.995719     10.294447
  Au      7.324708     10.806988      8.989988
  Au      9.914192      9.639651      9.774470
  Au      7.525122      5.418190      9.073816
  Au      7.958933      6.611603      6.752589
  Au      7.597434      9.942266      6.459192
  Au     10.000054      8.717439      7.255023
  Au      8.786959      8.171524      4.737133
  Au      5.882951      7.774596      5.390719
  Au      5.309867      9.371598      7.822955
  Au      5.241171      6.683550      7.872039
  Mn      7.895773      8.094646      9.047022
13
Coordinates from ORCA-job pbe E -2780.691862008226
  Au      7.587427      9.518785     11.381276
  Au      5.517657      7.999098     10.308443
  Au      7.329632     10.827836      8.985632
  Au      9.903425      9.616821      9.777266
  Au      7.554613      5.408815      9.063406
  Au      7.962328      6.615164      6.741824
  Au      7.604663      9.934250      6.465409
  Au     10.001638      8.694206      7.256356
  Au      8.783179      8.175599      4.725765
  Au      5.876000      7.780179      5.394288
  Au      5.315571      9.373810      7.835007
  Au      5.271861      6.683743      7.883061
  Mn      7.867737      8.102036      9.038397
13
Coordinates from ORCA-job pbe E -2780.692270099759
  Au      7.569876      9.533908     11.375915
  Au      5.498288      8.004087     10.321019
  Au      7.336025     10.845866      8.980861
  Au      9.893536      9.593289      9.779035
  Au      7.587769      5.399730      9.053295
  Au      7.963537      6.617831      6.731428
  Au      7.611447      9.927410      6.470226
  Au     10.001478      8.672260      7.258823
  Au      8.779817      8.179597      4.715664
  Au      5.868185      7.786620      5.397659
  Au      5.320747      9.377329      7.846008
  Au      5.303336      6.684251      7.895522
  Mn      7.841691      8.108165      9.030675
13
Coordinates from ORCA-job pbe E -2780.692609010203
  Au      7.553221      9.545593     11.371214
  Au      5.477338      8.011814     10.332510
  Au      7.344523     10.861224      8.975381
  Au      9.882374      9.571557      9.784688
  Au      7.621384      5.391054      9.043753
  Au      7.963532      6.619374      6.719725
  Au      7.616443      9.921736      6.472116
  Au     10.000850      8.652727      7.260933
  Au      8.776812      8.182709      4.705806
  Au      5.859324      7.792784      5.401923
  Au      5.325077      9.381391      7.855364
  Au      5.335370      6.685453      7.909193
  Mn      7.819483      8.112928      9.023524
13
Coordinates from ORCA-job pbe E -2780.692879999862
  Au      7.536011      9.555008     11.366713
  Au      5.454469      8.022267     10.341523
  Au      7.353454     10.872906      8.970324
  Au      9.874147      9.549804      9.788026
  Au      7.656139      5.383301      9.034245
  Au      7.962439      6.618454      6.708109
  Au      7.620368      9.916922      6.473071
  Au      9.998196      8.636873      7.264189
  Au      8.775789      8.185947      4.698544
  Au      5.849278      7.799272      5.406666
  Au      5.328542      9.386420      7.863194
  Au      5.366471      6.686329      7.924397
  Mn      7.800428      8.116841      9.017129
13
Coordinates from ORCA-job pbe E -2780.693093361917
  Au      7.522553      9.558779     11.363433
  Au      5.430803      8.036834     10.348432
  Au      7.363322     10.881034      8.965118
  Au      9.865560      9.532244      9.796198
  Au      7.687701      5.376420      9.024920
  Au      7.960695      6.615409      6.694575
  Au      7.621262      9.912930      6.470902
  Au      9.995573      8.625750      7.266876
  Au      8.776695      8.187935      4.692392
  Au      5.838183      7.804497      5.413534
  Au      5.330633      9.391139      7.868393
  Au      5.395927      6.687631      7.940313
  Mn      7.786825      8.119741      9.011043
13
Coordinates from ORCA-job pbe E -2780.693268782547
  Au      7.511513      9.558422     11.360952
  Au      5.406497      8.055284     10.351798
  Au      7.371512     10.883958      8.960935
  Au      9.861811      9.516801      9.800867
  Au      7.717660      5.370990      9.015351
  Au      7.958119      6.608984      6.681255
  Au      7.620517      9.909292      6.468092
  Au      9.990529      8.620409      7.271129
  Au      8.782076      8.190072      4.690505
  Au      5.825975      7.809669      5.421203
  Au      5.330970      9.396127      7.870951
  Au      5.421188      6.688293      7.957492
  Mn      7.777365      8.122041      9.005599
13
Coordinates from ORCA-job pbe E -2780.693424172868
  Au      7.507883      9.551065     11.360205
  Au      5.384579      8.078395     10.352650
  Au      7.377713     10.882195      8.957138
  Au      9.859098      9.507952      9.809361
  Au      7.741207      5.366871      9.005500
  Au      7.954144      6.600618      6.666448
  Au      7.615973      9.906092      6.462452
  Au      9.985717      8.620700      7.275641
  Au      8.792124      8.191028      4.691299
  Au      5.813401      7.812998      5.431031
  Au      5.328899      9.399785      7.869515
  Au      5.441467      6.688981      7.974332
  Mn      7.773527      8.123663      9.000558
13
Coordinates from ORCA-job pbe E -2780.693564851967
  Au      7.510138      9.540112     11.360202
  Au      5.366409      8.104822     10.351034
  Au      7.378896     10.875253      8.954416
  Au      9.861623      9.502463      9.814627
  Au      7.760329      5.364156      8.995498
  Au      7.948643      6.590962      6.651822
  Au      7.609726      9.902737      6.456325
  Au      9.979249      8.625404      7.281858
  Au      8.809493      8.192791      4.697064
  Au      5.800327      7.815897      5.440694
  Au      5.323478      9.401993      7.864654
  Au      5.454834      6.688905      7.991574
  Mn      7.772587      8.124849      8.996363
13
Coordinates from ORCA-job pbe E -2780.693686129981
  Au      7.518777      9.528025     11.360700
  Au      5.354490      8.132633     10.349279
  Au      7.375045     10.866229      8.952513
  Au      9.865232      9.500166      9.821356
  Au      7.774649      5.362006      8.985149
  Au      7.939954      6.583439      6.636530
  Au      7.601726      9.898973      6.449390
  Au      9.974091      8.630020      7.288487
  Au      8.833351      8.195008      4.704911
  Au      5.786830      7.817877      5.450411
  Au      5.314927      9.401804      7.856591
  Au      5.464461      6.688251      8.008177
  Mn      7.772199      8.125913      8.992635
13
Coordinates from ORCA-job pbe E -2780.693792558432
  Au      7.529619      9.519269     11.361643
  Au      5.347756      8.159173     10.348134
  Au      7.365960     10.856592      8.951291
  Au      9.871416      9.496555      9.825025
  Au      7.788043      5.360071      8.974694
  Au      7.928967      6.579807      6.621331
  Au      7.594989      9.894017      6.443708
  Au      9.969860      8.632175      7.295503
  Au      8.864058      8.198575      4.714945
  Au      5.771037      7.820363      5.457933
  Au      5.302940      9.399816      7.847023
  Au      5.471348      6.686794      8.025718
  Mn      7.769740      8.127135      8.989182
13
Coordinates from ORCA-job pbe E -2780.693899615612
  Au      7.542970      9.515319     11.363522
  Au      5.347224      8.182581     10.348218
  Au      7.352077     10.847205      8.951026
  Au      9.876935      9.492635      9.828648
  Au      7.798928      5.359156      8.962871
  Au      7.914761      6.582068      6.606301
  Au      7.589624      9.886719      6.439582
  Au      9.969089      8.630177      7.302200
  Au      8.900485      8.202458      4.725008
  Au      5.752056      7.822393      5.464333
  Au      5.288812      9.395972      7.835948
  Au      5.477477      6.684558      8.042840
  Mn      7.765295      8.129104      8.985631
13
Coordinates from ORCA-job pbe E -2780.694026605005
  Au      7.556830      9.518353     11.367588
  Au      5.352760      8.200783     10.349439
  Au      7.333119     10.838290      8.951435
  Au      9.883264      9.486075      9.830148
  Au      7.807824      5.360233      8.950235
  Au      7.900049      6.592194      6.591675
  Au      7.587143      9.875506      6.437968
  Au      9.972587      8.624109      7.308969
  Au      8.942489      8.206490      4.734461
  Au      5.727415      7.823640      5.467989
  Au      5.272146      9.390615      7.824646
  Au      5.480737      6.681798      8.059225
  Mn      7.759368      8.132257      8.982352
13
Coordinates from ORCA-job pbe E -2780.694194588125
  Au      7.570599      9.529936     11.374195
  Au      5.364687      8.211538     10.352157
  Au      7.310282     10.830228      8.952469
  Au      9.887453      9.476702      9.831648
  Au      7.812216      5.365246      8.936409
  Au      7.886043      6.611831      6.578921
  Au      7.588013      9.858230      6.439608
  Au      9.981869      8.613402      7.315029
  Au      8.986999      8.210749      4.740080
  Au      5.696978      7.822260      5.469919
  Au      5.255310      9.384327      7.814355
  Au      5.482523      6.678679      8.072002
  Mn      7.752761      8.137217      8.979337
13
Coordinates from ORCA-job pbe E -2780.694409362397
  Au      7.581248      9.548338     11.383777
  Au      5.378351      8.215151     10.355976
  Au      7.288074     10.824184      8.952762
  Au      9.888535      9.461967      9.832496
  Au      7.814283      5.374240      8.923092
  Au      7.877781      6.639180      6.568790
  Au      7.591463      9.834576      6.444347
  Au      9.995890      8.600805      7.320681
  Au      9.028754      8.215166      4.740064
  Au      5.661177      7.817059      5.470589
  Au      5.240245      9.379343      7.807330
  Au      5.482818      6.676794      8.079620
  Mn      7.747114      8.143540      8.976605
13
Coordinates from ORCA-job pbe E -2780.694649075988
  Au      7.589532      9.565271     11.393992
  Au      5.388241      8.218923     10.359598
  Au      7.272136     10.818874      8.951209
  Au      9.884659      9.445214      9.835921
  Au      7.815452      5.384874      8.909190
  Au      7.874776      6.666382      6.560425
  Au      7.593960      9.806423      6.449410
  Au     10.010657      8.592162      7.325771
  Au      9.065232      8.220837      4.736716
  Au      5.623427      7.806912      5.474556
  Au      5.229329      9.377584      7.802988
  Au      5.484033      6.676990      8.083241
  Mn      7.744299      8.149898      8.973114
13
Coordinates from ORCA-job pbe E -2780.694890179181
  Au      7.595211      9.575871     11.402969
  Au      5.392725      8.227147     10.361036
  Au      7.264185     10.814920      8.948608
  Au      9.880268      9.428830      9.841426
  Au      7.819082      5.393406      8.894766
  Au      7.875622      6.688212      6.551238
  Au      7.592665      9.777207      6.452791
  Au     10.023688      8.590768      7.331912
  Au      9.097966      8.227433      4.733898
  Au      5.585442      7.792122      5.482095
  Au      5.221168      9.379654      7.800458
  Au      5.483665      6.679514      8.085937
  Mn      7.744045      8.155258      8.968996
13
Coordinates from ORCA-job pbe E -2780.695123123124
  Au      7.599683      9.579140     11.408045
  Au      5.394367      8.240035     10.360205
  Au      7.262655     10.811713      8.945715
  Au      9.877752      9.417456      9.850250
  Au      7.822448      5.398657      8.878945
  Au      7.876016      6.702685      6.540520
  Au      7.587648      9.749182      6.453942
  Au     10.033299      8.595393      7.338227
  Au      9.129194      8.235583      4.734341
  Au      5.550324      7.774497      5.492963
  Au      5.214953      9.384582      7.798722
  Au      5.482764      6.682206      8.090196
  Mn      7.744627      8.159215      8.964058
13
Coordinates from ORCA-job pbe E -2780.695352133431
  Au      7.607905      9.581659     11.411017
  Au      5.392522      8.260881     10.364774
  Au      7.253289     10.811231      8.942620
  Au      9.879093      9.404788      9.855906
  Au      7.835391      5.400582      8.858680
  Au      7.869820      6.711895      6.520906
  Au      7.583303      9.725584      6.455335
  Au     10.040779      8.591623      7.348498
  Au      9.171838      8.244217      4.737588
  Au      5.516959      7.765270      5.502058
  Au      5.202891      9.385416      7.795180
  Au      5.489271      6.682498      8.107737
  Mn      7.732672      8.164701      8.955829
13
Coordinates from ORCA-job pbe E -2780.695553697371
  Au      7.605434      9.569280     11.405445
  Au      5.384732      8.279760     10.367866
  Au      7.267588     10.821782      8.934792
  Au      9.879803      9.399398      9.866287
  Au      7.841852      5.398392      8.839382
  Au      7.873988      6.706363      6.503604
  Au      7.573980      9.704130      6.454744
  Au     10.043645      8.605025      7.358113
  Au      9.192695      8.255410      4.744470
  Au      5.496166      7.742266      5.517288
  Au      5.201606      9.395850      7.801213
  Au      5.490150      6.687067      8.117721
  Mn      7.724094      8.165620      8.945205
13
Coordinates from ORCA-job pbe E -2780.695703591422
  Au      7.608305      9.581283     11.405788
  Au      5.396894      8.291294     10.365309
  Au      7.261869     10.812643      8.927063
  Au      9.884928      9.388788      9.877257
  Au      7.849576      5.398752      8.822731
  Au      7.856333      6.727427      6.486764
  Au      7.569040      9.680073      6.451992
  Au     10.053471      8.604794      7.367762
  Au      9.236010      8.266259      4.758143
  Au      5.455658      7.732479      5.526243
  Au      5.186065      9.395764      7.793817
  Au      5.491644      6.686959      8.130535
  Mn      7.725937      8.163828      8.942726
13
Coordinates from ORCA-job pbe E -2780.695827682399
  Au      7.595542      9.582990     11.392972
  Au      5.398311      8.294940     10.364006
  Au      7.285631     10.806387      8.911972
  Au      9.893591      9.394662      9.894575
  Au      7.852611      5.391659      8.808911
  Au      7.838762      6.727537      6.468801
  Au      7.554753      9.667306      6.441622
  Au     10.057820      8.619002      7.381279
  Au      9.260266      8.279435      4.773933
  Au      5.430436      7.719507      5.538785
  Au      5.181575      9.405015      7.797291
  Au      5.492172      6.690162      8.141854
  Mn      7.734263      8.151742      8.940128
13
Coordinates from ORCA-job pbe E -2780.695903964782
  Au      7.601199      9.590322     11.398582
  Au      5.399823      8.300645     10.365839
  Au      7.287561     10.794747      8.902255
  Au      9.897902      9.394819      9.906063
  Au      7.850986      5.398627      8.784190
  Au      7.825686      6.742782      6.454506
  Au      7.545668      9.642238      6.433465
  Au     10.063253      8.629673      7.394802
  Au      9.299189      8.280990      4.787026
  Au      5.391786      7.706278      5.550153
  Au      5.172483      9.409204      7.793884
  Au      5.491844      6.691791      8.145537
  Mn      7.748351      8.148227      8.939826
13
Coordinates from ORCA-job pbe E -2780.696004694732
  Au      7.591826      9.596514     11.398148
  Au      5.390291      8.289258     10.368019
  Au      7.304256     10.791805      8.897011
  Au      9.894182      9.406760      9.915728
  Au      7.864964      5.392035      8.778922
  Au      7.815140      6.739885      6.442905
  Au      7.543801      9.639259      6.421273
  Au     10.057070      8.637068      7.402386
  Au      9.301394      8.269990      4.789939
  Au      5.379701      7.713070      5.549327
  Au      5.181218      9.416494      7.803365
  Au      5.495928      6.697080      8.146782
  Mn      7.755961      8.141124      8.942323
13
Coordinates from ORCA-job pbe E -2780.696091707780
  Au      7.582519      9.602053     11.394281
  Au      5.386950      8.278954     10.376076
  Au      7.318618     10.785584      8.891012
  Au      9.890095      9.427110      9.918804
  Au      7.868902      5.385680      8.768417
  Au      7.798299      6.728378      6.432017
  Au      7.539227      9.644612      6.407586
  Au     10.042038      8.647160      7.411103
  Au      9.310159      8.255156      4.799521
  Au      5.374123      7.728590      5.546984
  Au      5.194860      9.418505      7.813948
  Au      5.505449      6.697536      8.147606
  Mn      7.764493      8.131024      8.948776
13
Coordinates from ORCA-job pbe E -2780.696158358935
  Au      7.568860      9.615648     11.397764
  Au      5.393032      8.262680     10.382994
  Au      7.332700     10.788472      8.885715
  Au      9.884527      9.439927      9.925573
  Au      7.873356      5.384593      8.756059
  Au      7.783788      6.730247      6.422030
  Au      7.539359      9.633831      6.400105
  Au     10.040002      8.653305      7.417466
  Au      9.321692      8.243615      4.800974
  Au      5.356935      7.733658      5.546315
  Au      5.209416      9.419109      7.825694
  Au      5.505141      6.698098      8.141391
  Mn      7.766923      8.127162      8.954050
13
Coordinates from ORCA-job pbe E -2780.696226017824
  Au      7.559565      9.628040     11.401587
  Au      5.401841      8.248796     10.390973
  Au      7.347338     10.795589      8.876721
  Au      9.874145      9.454913      9.927082
  Au      7.876512      5.382814      8.742103
  Au      7.768890      6.729250      6.407520
  Au      7.542103      9.623354      6.395614
  Au     10.037395      8.656883      7.423341
  Au      9.340786      8.235211      4.808703
  Au      5.337856      7.743522      5.547529
  Au      5.222913      9.414167      7.837767
  Au      5.503289      6.692722      8.138467
  Mn      7.763101      8.125083      8.958722
13
Coordinates from ORCA-job pbe E -2780.696267937568
  Au      7.548796      9.637056     11.402709
  Au      5.406701      8.232905     10.395097
  Au      7.364830     10.804707      8.867428
  Au      9.863547      9.466636      9.926798
  Au      7.873323      5.385151      8.734280
  Au      7.764055      6.726722      6.398293
  Au      7.545859      9.618777      6.394291
  Au     10.038967      8.658171      7.425637
  Au      9.345918      8.230125      4.810556
  Au      5.329854      7.750751      5.552075
  Au      5.237284      9.410021      7.852308
  Au      5.500002      6.683858      8.134177
  Mn      7.756595      8.125464      8.962478
13
Coordinates from ORCA-job pbe E -2780.696287894969
  Au      7.545399      9.641994     11.401558
  Au      5.405530      8.227773     10.396840
  Au      7.374140     10.806620      8.860882
  Au      9.860677      9.469276      9.925362
  Au      7.877446      5.386928      8.731872
  Au      7.758259      6.726656      6.389887
  Au      7.546093      9.615725      6.392582
  Au     10.040200      8.656754      7.429221
  Au      9.355349      8.231461      4.814701
  Au      5.321765      7.755753      5.558721
  Au      5.240551      9.408379      7.857198
  Au      5.499134      6.676973      8.133596
  Mn      7.751187      8.126051      8.963708
13
Coordinates from ORCA-job pbe E -2780.696304239603
  Au      7.541798      9.642122     11.398070
  Au      5.401453      8.222060     10.396982
  Au      7.381947     10.806353      8.855948
  Au      9.859302      9.470095      9.926768
  Au      7.879644      5.392313      8.730925
  Au      7.759189      6.725823      6.387716
  Au      7.546808      9.615968      6.389581
  Au     10.040324      8.656305      7.429362
  Au      9.356065      8.231153      4.815319
  Au      5.320455      7.757809      5.565072
  Au      5.243372      9.410212      7.862645
  Au      5.497120      6.672799      8.133393
  Mn      7.748256      8.127332      8.964349
13
Coordinates from ORCA-job pbe E -2780.696319189332
  Au      7.538747      9.640087     11.392943
  Au      5.394986      8.217842     10.397317
  Au      7.387632     10.806839      8.853441
  Au      9.859937      9.464020      9.927620
  Au      7.884328      5.398351      8.735076
  Au      7.761575      6.725794      6.387646
  Au      7.545272      9.617668      6.385162
  Au     10.038516      8.655861      7.429452
  Au      9.354829      8.231710      4.812927
  Au      5.322034      7.758516      5.570284
  Au      5.245932      9.413059      7.866383
  Au      5.498053      6.671079      8.133309
  Mn      7.743890      8.129518      8.964571
13
Coordinates from ORCA-job pbe E -2780.696332535794
  Au      7.536213      9.637106     11.388084
  Au      5.389511      8.211677     10.398580
  Au      7.394042     10.807447      8.849803
  Au      9.862477      9.457851      9.930155
  Au      7.891399      5.405430      8.738250
  Au      7.761641      6.726260      6.389846
  Au      7.542475      9.618841      6.378631
  Au     10.033681      8.657167      7.429049
  Au      9.355864      8.231003      4.812499
  Au      5.322807      7.758989      5.572550
  Au      5.248597      9.415907      7.869477
  Au      5.496100      6.671067      8.132989
  Mn      7.740927      8.131599      8.966218
13
Coordinates from ORCA-job pbe E -2780.696342367453
  Au      7.532430      9.634999     11.383098
  Au      5.384635      8.206351     10.401823
  Au      7.401217     10.811468      8.846199
  Au      9.862755      9.449756      9.932483
  Au      7.896289      5.410807      8.742524
  Au      7.762506      6.727518      6.391032
  Au      7.539397      9.619074      6.373110
  Au     10.028060      8.658336      7.428155
  Au      9.355957      8.230831      4.810421
  Au      5.324276      7.759211      5.571905
  Au      5.254133      9.416733      7.875027
  Au      5.498133      6.671057      8.133104
  Mn      7.735947      8.134203      8.967249
13
Coordinates from ORCA-job pbe E -2780.696348678929
  Au      7.531441      9.633043     11.381266
  Au      5.382907      8.202993     10.404078
  Au      7.406742     10.814215      8.842220
  Au      9.864140      9.446866      9.934002
  Au      7.899784      5.413428      8.743101
  Au      7.761097      6.728642      6.393645
  Au      7.535846      9.619159      6.369516
  Au     10.024585      8.660110      7.428808
  Au      9.356919      8.230208      4.811370
  Au      5.324777      7.759170      5.568525
  Au      5.257154      9.415104      7.878010
  Au      5.495871      6.671680      8.132295
  Mn      7.734469      8.135726      8.969295
13
Coordinates from ORCA-job pbe E -2780.696351629089
  Au      7.531142      9.632004     11.380364
  Au      5.381478      8.203133     10.405743
  Au      7.408963     10.815695      8.840433
  Au      9.864571      9.446460      9.934263
  Au      7.899753      5.413272      8.743387
  Au      7.760789      6.729694      6.394658
  Au      7.534796      9.619109      6.368823
  Au     10.023684      8.659688      7.428492
  Au      9.356364      8.230965      4.811784
  Au      5.326229      7.759410      5.566069
  Au      5.258497      9.413040      7.880058
  Au      5.496368      6.671007      8.132587
  Mn      7.733098      8.136866      8.969471
13
Coordinates from ORCA-job pbe E -2780.696353232922
  Au      7.531359      9.630782     11.379788
  Au      5.380158      8.204191     10.406044
  Au      7.410247     10.815653      8.839233
  Au      9.864810      9.447652      9.933870
  Au      7.899153      5.412299      8.743083
  Au      7.761024      6.730728      6.395700
  Au      7.534016      9.619348      6.368806
  Au     10.024468      8.659083      7.428954
  Au      9.355638      8.231721      4.812057
  Au      5.326959      7.759502      5.565041
  Au      5.258718      9.411549      7.881118
  Au      5.496139      6.670390      8.132928
  Mn      7.733043      8.137445      8.969508
13
Coordinates from ORCA-job pbe E -2780.696354041419
  Au      7.531418      9.629142     11.379106
  Au      5.378509      8.204570     10.406071
  Au      7.411057     10.815464      8.838766
  Au      9.865293      9.449149      9.933205
  Au      7.898353      5.411440      8.743468
  Au      7.761683      6.731448      6.397075
  Au      7.533812      9.620111      6.368450
  Au     10.024881      8.658425      7.428808
  Au      9.354574      8.232171      4.811904
  Au      5.328170      7.759850      5.565123
  Au      5.258875      9.411000      7.881568
  Au      5.496057      6.669698      8.133094
  Mn      7.733049      8.137874      8.969492
