17
E=  -1788.20453191;c=0;m=5
Au      8.037007059850691      9.264178904112850      9.506458547715750
Au      5.835089650483970      4.896710030976180      8.935605158291439
Au      8.073467597930350      7.044728477564470     11.359071390071540
Au      8.349780184183709      4.420088813896430     10.240482082503860
Au      5.760242961944840      7.642993953454660      9.775835553014041
Au      7.096220988053830      5.549728994245290      6.437904915162050
Au      9.554564741111550      4.723335283139470      7.657641951887040
Au      6.683458038667810      8.297193569481820      7.142101939441870
Au     11.436055101655750      9.080754171860979      6.744051071212450
Au     10.463146851700310      6.244350614964350      9.942152949342191
Au     10.504470113572619     10.541468467610040      9.072184898045570
Au     12.310953224592080      8.293147848781190      9.396889981527730
Au     10.275405527225651      8.799034120075870     11.257832568073910
Au     11.817173527620010      6.382759697003630      7.404291583964210
Au      9.288514508030540      7.302836497933210      6.379482099151620
Au      8.828244465179180     10.102792236450091      6.867993733365000
Cr      7.868426108197120      6.502523398449470      8.742027777229740
