13
E=  -1382.02749347;c=0;m=5
Au      6.464160687673060      8.895776930159361      3.947230556780840
Au      8.147124513578280      6.736114715628310      4.181606667359910
Au      7.564147648008020      4.766222131734500      5.850514016806790
Au      6.219855827805020      3.488341734275820      7.863579639076810
Au      4.875767555414290      5.578011591477930      6.721336152660830
Au      4.447086286061900     10.549823105011450      4.769590798624630
Au      4.306698189419840      7.979403054454400      5.684535851112350
Au      5.360208174557730      7.881047845900690      8.383164900126230
Au      7.412951842732610      5.868568353798320      8.568003863704581
Au      8.170376216410540      8.466451371545171      8.254005772783501
Au      8.743666593931501      9.164188215625471      5.596598436922570
Au      6.324783092790890     10.095853415788021      6.774171527964540
Fe      6.852081461616020      7.333060614600140      6.273432596075450
