13
Coordinates from ORCA-job pbe E -2893.400218756150
  Au      6.464161      8.895777      3.947231
  Au      8.147125      6.736115      4.181607
  Au      7.564148      4.766222      5.850514
  Au      6.219856      3.488342      7.863580
  Au      4.875768      5.578012      6.721336
  Au      4.447086     10.549823      4.769591
  Au      4.306698      7.979403      5.684536
  Au      5.360208      7.881048      8.383165
  Au      7.412952      5.868568      8.568004
  Au      8.170376      8.466451      8.254006
  Au      8.743667      9.164188      5.596598
  Au      6.324783     10.095853      6.774172
  Fe      6.852081      7.333061      6.273433
13
Coordinates from ORCA-job pbe E -2893.401097212330
  Au      6.490993      8.893059      3.970889
  Au      8.148393      6.732794      4.152899
  Au      7.571299      4.774883      5.829958
  Au      6.213670      3.520638      7.876668
  Au      4.869122      5.568094      6.730678
  Au      4.503657     10.526488      4.792847
  Au      4.311590      7.977376      5.693066
  Au      5.349699      7.857997      8.378609
  Au      7.399656      5.922138      8.566974
  Au      8.158783      8.455020      8.240495
  Au      8.680772      9.194195      5.590449
  Au      6.348713     10.047660      6.776740
  Fe      6.842561      7.332521      6.267498
13
Coordinates from ORCA-job pbe E -2893.401901928730
  Au      6.501428      8.886770      3.944866
  Au      8.156328      6.723385      4.133392
  Au      7.574186      4.771515      5.825812
  Au      6.220087      3.527990      7.881529
  Au      4.861127      5.569083      6.740148
  Au      4.489563     10.551415      4.784086
  Au      4.307065      7.968139      5.699656
  Au      5.338716      7.843916      8.386105
  Au      7.386754      5.908750      8.577629
  Au      8.171815      8.462741      8.239378
  Au      8.694213      9.206106      5.592377
  Au      6.345138     10.054487      6.796192
  Fe      6.842488      7.328566      6.266599
13
Coordinates from ORCA-job pbe E -2893.402037484792
  Au      6.498052      8.882406      3.932645
  Au      8.161555      6.723921      4.120235
  Au      7.565174      4.776010      5.816412
  Au      6.235216      3.518372      7.868773
  Au      4.844338      5.573333      6.750031
  Au      4.508238     10.521596      4.783389
  Au      4.310505      7.983977      5.702793
  Au      5.333473      7.843621      8.403421
  Au      7.372236      5.905608      8.593724
  Au      8.183377      8.472432      8.239013
  Au      8.714098      9.213793      5.591267
  Au      6.323098     10.057652      6.799514
  Fe      6.839548      7.330143      6.266552
13
Coordinates from ORCA-job pbe E -2893.402310584393
  Au      6.509950      8.873369      3.927284
  Au      8.165194      6.724690      4.118005
  Au      7.561835      4.782763      5.813237
  Au      6.242950      3.523011      7.857893
  Au      4.837516      5.572174      6.757108
  Au      4.518135     10.528837      4.774716
  Au      4.308198      7.979089      5.711437
  Au      5.335052      7.840594      8.411520
  Au      7.369283      5.918985      8.597638
  Au      8.179403      8.466796      8.235324
  Au      8.698372      9.216868      5.588708
  Au      6.326930     10.048333      6.808348
  Fe      6.836090      7.327354      6.266553
13
Coordinates from ORCA-job pbe E -2893.402381877309
  Au      6.512181      8.869208      3.918295
  Au      8.177648      6.729281      4.115491
  Au      7.558678      4.794131      5.804897
  Au      6.239814      3.534199      7.856719
  Au      4.831617      5.573476      6.764419
  Au      4.526678     10.523225      4.770294
  Au      4.309775      7.977560      5.719438
  Au      5.337171      7.836837      8.417836
  Au      7.366573      5.917271      8.602540
  Au      8.178819      8.466313      8.229099
  Au      8.686678      9.220530      5.590025
  Au      6.328286     10.036096      6.814596
  Fe      6.834991      7.324737      6.264123
13
Coordinates from ORCA-job pbe E -2893.402442011857
  Au      6.516725      8.862858      3.907879
  Au      8.192952      6.738364      4.113131
  Au      7.552316      4.799734      5.798443
  Au      6.240539      3.531403      7.853212
  Au      4.822691      5.574747      6.773334
  Au      4.532759     10.521201      4.764983
  Au      4.309614      7.980713      5.728125
  Au      5.340352      7.835791      8.425635
  Au      7.367002      5.920722      8.609868
  Au      8.179958      8.460224      8.226594
  Au      8.680944      9.222001      5.588990
  Au      6.319312     10.033555      6.816397
  Fe      6.833744      7.321551      6.261181
13
Coordinates from ORCA-job pbe E -2893.402476895632
  Au      6.514282      8.857914      3.901513
  Au      8.205957      6.743870      4.117525
  Au      7.545387      4.804010      5.797368
  Au      6.244834      3.532176      7.840226
  Au      4.818541      5.577991      6.784631
  Au      4.535318     10.517051      4.753977
  Au      4.308084      7.987152      5.735992
  Au      5.344418      7.836825      8.432362
  Au      7.366473      5.916054      8.612866
  Au      8.181176      8.455933      8.226669
  Au      8.678734      9.221386      5.589416
  Au      6.313055     10.033883      6.815286
  Fe      6.832648      7.318616      6.259939
13
Coordinates from ORCA-job pbe E -2893.402500932434
  Au      6.510566      8.854754      3.898588
  Au      8.218856      6.749284      4.124068
  Au      7.544772      4.807253      5.793164
  Au      6.242784      3.521956      7.835635
  Au      4.812972      5.586698      6.794567
  Au      4.532440     10.513704      4.742554
  Au      4.306561      7.994132      5.743112
  Au      5.349953      7.838589      8.435326
  Au      7.369238      5.907122      8.614916
  Au      8.181334      8.453841      8.225789
  Au      8.675943      9.224320      5.591806
  Au      6.310982     10.035068      6.811131
  Fe      6.832508      7.316142      6.257115
13
Coordinates from ORCA-job pbe E -2893.402525743508
  Au      6.511358      8.851598      3.902393
  Au      8.223090      6.751324      4.126141
  Au      7.548466      4.805143      5.793761
  Au      6.234333      3.525149      7.835934
  Au      4.814699      5.587623      6.796432
  Au      4.527470     10.512400      4.742901
  Au      4.305834      7.996078      5.745574
  Au      5.354252      7.839300      8.434252
  Au      7.370300      5.904058      8.609938
  Au      8.179828      8.452209      8.225649
  Au      8.676493      9.227845      5.591400
  Au      6.309399     10.035541      6.808370
  Fe      6.833385      7.314595      6.255024
13
Coordinates from ORCA-job pbe E -2893.402547154800
  Au      6.509519      8.848218      3.907552
  Au      8.226914      6.750334      4.129405
  Au      7.554274      4.800920      5.795551
  Au      6.230878      3.525175      7.831149
  Au      4.814146      5.589514      6.800708
  Au      4.528290     10.513941      4.736258
  Au      4.302978      7.998710      5.752660
  Au      5.359286      7.841179      8.436503
  Au      7.370268      5.902469      8.602747
  Au      8.176336      8.449649      8.224457
  Au      8.675798      9.235008      5.592991
  Au      6.307946     10.035883      6.805134
  Fe      6.832274      7.311864      6.252654
13
Coordinates from ORCA-job pbe E -2893.402558182909
  Au      6.512302      8.842079      3.911560
  Au      8.231065      6.749922      4.132658
  Au      7.559004      4.799210      5.795653
  Au      6.231435      3.521557      7.823208
  Au      4.810880      5.592245      6.806468
  Au      4.527274     10.512246      4.729691
  Au      4.299496      8.005082      5.760458
  Au      5.361864      7.846619      8.440435
  Au      7.369141      5.899736      8.597994
  Au      8.174813      8.449236      8.221277
  Au      8.675579      9.239652      5.594993
  Au      6.305896     10.035873      6.803384
  Fe      6.830160      7.309407      6.249991
13
Coordinates from ORCA-job pbe E -2893.402563961327
  Au      6.512762      8.841247      3.911313
  Au      8.235789      6.748785      4.133838
  Au      7.561797      4.799415      5.794387
  Au      6.229750      3.520821      7.820011
  Au      4.808726      5.594648      6.808897
  Au      4.526504     10.509636      4.726610
  Au      4.298063      8.006734      5.766455
  Au      5.363277      7.848004      8.443392
  Au      7.367891      5.900448      8.595935
  Au      8.175380      8.447996      8.219388
  Au      8.676668      9.241352      5.596568
  Au      6.303339     10.036051      6.803050
  Fe      6.828962      7.307726      6.247927
13
Coordinates from ORCA-job pbe E -2893.402566703491
  Au      6.513322      8.842332      3.910751
  Au      8.236344      6.749745      4.132713
  Au      7.563026      4.798717      5.794668
  Au      6.230482      3.520495      7.820631
  Au      4.808190      5.594234      6.808095
  Au      4.528511     10.509245      4.726152
  Au      4.296739      8.006768      5.768552
  Au      5.362129      7.848762      8.444327
  Au      7.367239      5.900811      8.595750
  Au      8.175991      8.448817      8.218433
  Au      8.676341      9.240011      5.596556
  Au      6.302923     10.035504      6.803983
  Fe      6.827670      7.307423      6.247159
