15
E=  -1599.89993283;c=0;m=5
Au      7.912089387839520     10.148685234543130      8.706523252318529
Au      4.871699876729140      7.775240586771860      6.123761959881570
Au     10.165399840929380      7.153555391966200      4.731801578357680
Au     11.361130221423780      7.343784379051470      7.315458573877240
Au      9.367073934565971      9.168290152383889      6.529026783932170
Au      7.420535855358370      7.416334105004060      4.929064853271380
Au      6.715568296693500      9.958403730397000      6.121362002353190
Au      9.068842525848090      5.758957149335470      6.917453453141230
Au      6.314021156733280      5.363967047473940      6.645384733039890
Au      6.836114615499560      8.087364686377770     10.367959134020680
Au      5.115945522471240      9.471673788917720      8.474069547157640
Au      7.510468650690990      5.553956049890060      9.230313176314359
Au      4.867525172112070      6.630643324625170      8.797885791883679
Au      9.416231826470479      7.733052893274250      9.241280381334731
Fe      7.120848046634730      7.755161269988090      7.672369819115970
