19
E=  -2035.06590191;c=0;m=5
Au      6.555433919316290     10.425666089746141     10.532518662137001
Au      5.395174912637540      8.527228174909849     12.085164462582650
Au      7.124895434533580      6.554816482036030     10.925283653512521
Au      5.007268013049320      5.778399720429900     12.553533967487670
Au      8.132356107826860      8.532350161085359      6.576672238721830
Au      7.992801712393250     10.991730922741830      8.125273512801551
Au      6.826508532945780      6.490220663677130      8.110275988134530
Au      8.380294182218030      8.474994417748160      9.438700072944110
Au      4.742269961700670      5.384793262036810      9.764138021371030
Au      3.013496047479940      7.197045334547150     11.161790176577631
Au      4.482277873056290      5.397924944600570      7.037753100033490
Au      2.839278544000530      7.241055670311140      5.658794556130830
Au      2.748150461845910      7.236519580509770      8.449408650342690
Au      5.150456340572230     11.549689156078180      8.258635585653581
Au      5.614345474532020      7.659668660230170      5.738155363742010
Au      6.153206187722380     10.479771016609639      5.748178729389750
Au      3.934942195961560      9.487066295503830      9.795057909477331
Au      3.646365864606420      9.565058083592680      6.967976812482080
Fe      6.093805113601360      9.105118243605620      8.145924386477761
