15
E=  -1580.68516142;c=0;m=6
Au      6.531525076463080      4.927382329308970      7.583175092064400
Au      4.716080037556250      7.020097453453060      6.929791771562110
Au      5.590667151058760      6.726157190858040      9.620212787953880
Au      6.672185078017080      6.244718781667790      5.112553754340190
Au      6.534369943489610      9.011562951722921      5.995497512534080
Au      5.124593537563640      9.267132265440720      8.523415889691860
Au      9.095497230284270      5.845432157775460      6.817515308067960
Au      8.835535336386370      7.861776543752560      4.701848211991750
Au     10.864259847632560      8.103352266045951      6.694112156897470
Au      9.078430914197510     10.311080367690890      5.993950297808750
Au      8.238440399795641      5.736077695605980      9.685119300265089
Au      7.665464202702630      8.625510915016580      9.952299334572240
Au      9.934394404325600      9.922247084524480      8.763566756429810
Au      7.317775244397660     10.835853144806570      8.080759576433540
Mn      9.487371366129340      7.525301182330040      8.625336869386890
