19
E=  -2035.38650746;c=0;m=3
Au      6.327116211025940     11.004762300832320      6.237650756080360
Au      3.555725856349310      6.343261047420660      7.197678474645740
Au      4.078666945392700      9.172738369767229      6.648470622149740
Au      4.038194212314080      7.124030353911110      4.612863857805440
Au      5.446626192708080      9.493046358087719      4.124924473608660
Au      8.701999074630500      6.181776900073320      5.471985110454710
Au      8.031624427924161      4.466961906809320      7.601714785248430
Au      5.955324288292040      5.489308571766510      5.952777355809050
Au      6.693500607803210      7.002508823293430      3.659219693669940
Au      8.020660437844750      8.963255745964700      5.237112632060510
Au      8.296473746626470      5.714996745350070     10.128586086774551
Au      5.788073354162410      5.798043270863290      8.802405084502450
Au      4.132666495241240      8.053825350690049      9.298014553340980
Au      6.869638187050210      8.210993880631049     10.035459100410110
Au      9.716422707411340      8.103201585403880      9.636380544173750
Au     10.205431963212860      8.123625683955719      6.848700295715710
Au      8.174872864736541      9.812558156951139      7.975366487077470
Au      5.523303677612860     10.392756092671080      8.816183223308860
Fe      8.092967119661360      7.035237035557420      7.857880983163420
