11
E=  -1164.96298654;c=0;m=3
Au      9.260046745928550      6.954665301461640      8.678125631271829
Au      6.306815756764210      5.213061817047700      5.326937007819170
Au      6.608358283324760      5.732711975045790      8.116999312150240
Au      8.085867183864480      8.697648107732070     10.546150522160721
Au      5.053963880697760      9.700899403353120      7.869818400757940
Au      5.498777433794300      7.510295115553790      9.913465944991231
Au      8.299149157164690      6.939355163887150      5.972869346497810
Au      5.513350783383800      7.704261812307940      6.170462924047660
Au      9.109997124969199      9.345317074001310      6.894976421319340
Au      7.572797913268340     10.805743886926161      8.693966628178750
Fe      7.157082996839920      8.306158202683310      8.175594720805330
