11
Coordinates from ORCA-job pbe E -2509.037390238175
  Au      8.406141      8.286942      6.318051
  Au      6.211641      7.003838      5.742697
  Au      6.036687      5.089614      8.116308
  Au      4.031941      5.433808      6.250512
  Au      4.243690      7.580579      7.962772
  Au     10.672906      9.388780      7.167934
  Au      9.145297      8.474743      9.094976
  Au      5.534900      8.807530      9.945884
  Au      7.768303      6.024191      9.907396
  Au      7.870079      8.396979     11.419749
  Mn      6.784603      7.592685      8.173346
11
Coordinates from ORCA-job pbe E -2509.039389486430
  Au      8.436806      8.291674      6.279172
  Au      6.188438      6.985931      5.703054
  Au      6.034859      5.078489      8.131623
  Au      3.992266      5.435311      6.260821
  Au      4.211409      7.556148      7.977716
  Au     10.744866      9.432650      7.192490
  Au      9.163826      8.490809      9.109569
  Au      5.511748      8.812307      9.956542
  Au      7.756394      6.003726      9.913729
  Au      7.879964      8.399800     11.413405
  Mn      6.785613      7.592844      8.161502
11
Coordinates from ORCA-job pbe E -2509.040878837357
  Au      8.469492      8.286874      6.248637
  Au      6.205539      6.995264      5.667262
  Au      6.027244      5.074336      8.139630
  Au      4.006027      5.470388      6.256813
  Au      4.189921      7.524010      8.019165
  Au     10.700759      9.408159      7.219803
  Au      9.182604      8.507027      9.092532
  Au      5.481250      8.813304      9.973984
  Au      7.753402      5.991492      9.939719
  Au      7.891288      8.411043     11.387600
  Mn      6.798664      7.597792      8.154479
11
Coordinates from ORCA-job pbe E -2509.042281608747
  Au      8.470161      8.264197      6.210662
  Au      6.257198      7.032564      5.654232
  Au      6.007804      5.084522      8.157947
  Au      4.062417      5.511139      6.241573
  Au      4.177921      7.489356      8.084369
  Au     10.708462      9.397456      7.154715
  Au      9.179790      8.510192      9.098117
  Au      5.435791      8.804550      9.995697
  Au      7.734956      5.980401      9.971005
  Au      7.861862      8.397945     11.370496
  Mn      6.809826      7.607369      8.160812
11
Coordinates from ORCA-job pbe E -2509.042702863243
  Au      8.487629      8.281363      6.205209
  Au      6.243569      7.037583      5.648033
  Au      6.013550      5.101719      8.174616
  Au      4.079895      5.505324      6.238004
  Au      4.174275      7.470323      8.114887
  Au     10.729402      9.375443      7.150860
  Au      9.181676      8.513905      9.091273
  Au      5.427293      8.795071     10.012895
  Au      7.714912      5.980789      9.960483
  Au      7.838927      8.395784     11.347830
  Mn      6.815062      7.622385      8.155534
11
Coordinates from ORCA-job pbe E -2509.043135132299
  Au      8.481571      8.301730      6.204588
  Au      6.239878      7.050381      5.647336
  Au      6.002564      5.105980      8.166630
  Au      4.077066      5.497995      6.219902
  Au      4.165388      7.430350      8.139162
  Au     10.767131      9.336880      7.162364
  Au      9.190559      8.527099      9.082970
  Au      5.412316      8.777576     10.032427
  Au      7.713383      5.991286      9.960638
  Au      7.840846      8.425816     11.331246
  Mn      6.815486      7.634598      8.152361
11
Coordinates from ORCA-job pbe E -2509.043519021046
  Au      8.490438      8.313876      6.214873
  Au      6.245951      7.063234      5.657189
  Au      5.981409      5.118217      8.162316
  Au      4.072645      5.503784      6.191979
  Au      4.159097      7.372015      8.162083
  Au     10.801509      9.307434      7.143559
  Au      9.206712      8.541248      9.069977
  Au      5.384014      8.747151     10.054389
  Au      7.695354      6.004245      9.966877
  Au      7.848316      8.454601     11.325846
  Mn      6.820744      7.653886      8.150536
11
Coordinates from ORCA-job pbe E -2509.043622779240
  Au      8.498663      8.311900      6.231711
  Au      6.252454      7.071749      5.673516
  Au      5.967546      5.127833      8.163774
  Au      4.064279      5.497185      6.166373
  Au      4.154448      7.345072      8.174489
  Au     10.819832      9.301036      7.137766
  Au      9.214305      8.546912      9.064601
  Au      5.369127      8.716712     10.068941
  Au      7.671771      6.023291      9.971793
  Au      7.870261      8.465556     11.295399
  Mn      6.823502      7.672443      8.151261
11
Coordinates from ORCA-job pbe E -2509.043782402370
  Au      8.501381      8.298885      6.233785
  Au      6.249041      7.066104      5.685647
  Au      5.969161      5.129051      8.161406
  Au      4.064612      5.499764      6.169656
  Au      4.155163      7.352199      8.167214
  Au     10.824012      9.316213      7.128178
  Au      9.223571      8.545502      9.056243
  Au      5.371404      8.706437     10.069433
  Au      7.662168      6.027399      9.969730
  Au      7.859828      8.459459     11.307582
  Mn      6.825846      7.678677      8.150750
11
Coordinates from ORCA-job pbe E -2509.043854044300
  Au      8.504168      8.292731      6.235106
  Au      6.244505      7.060602      5.692312
  Au      5.977167      5.124181      8.152494
  Au      4.069855      5.506294      6.174736
  Au      4.152167      7.363596      8.151901
  Au     10.815725      9.319128      7.120853
  Au      9.222723      8.541747      9.061253
  Au      5.373825      8.696790     10.073933
  Au      7.657755      6.025362      9.970780
  Au      7.864370      8.468280     11.311663
  Mn      6.823929      7.680981      8.154593
11
Coordinates from ORCA-job pbe E -2509.043928092592
  Au      8.509226      8.287421      6.232325
  Au      6.246614      7.061892      5.694628
  Au      5.985750      5.123998      8.147661
  Au      4.063376      5.498672      6.173995
  Au      4.148736      7.373923      8.148515
  Au     10.813250      9.317990      7.116912
  Au      9.227726      8.540577      9.062370
  Au      5.370357      8.681819     10.080272
  Au      7.650199      6.028657      9.971553
  Au      7.866277      8.472861     11.314631
  Mn      6.824676      7.691879      8.156762
11
Coordinates from ORCA-job pbe E -2509.044028117492
  Au      8.512565      8.279131      6.224515
  Au      6.246429      7.061771      5.700631
  Au      5.989127      5.134152      8.142057
  Au      4.064518      5.497039      6.172777
  Au      4.144032      7.368004      8.149218
  Au     10.821004      9.310035      7.118051
  Au      9.236683      8.542227      9.059911
  Au      5.359955      8.653479     10.094906
  Au      7.637265      6.042785      9.974168
  Au      7.869563      8.476094     11.304695
  Mn      6.825048      7.714974      8.158695
11
Coordinates from ORCA-job pbe E -2509.044098311440
  Au      8.510205      8.275478      6.219581
  Au      6.244214      7.061648      5.705471
  Au      5.995121      5.144253      8.134321
  Au      4.064655      5.495685      6.159768
  Au      4.141070      7.358000      8.147317
  Au     10.827078      9.290077      7.114037
  Au      9.241624      8.543340      9.060679
  Au      5.352377      8.629901     10.113569
  Au      7.634772      6.054682      9.975831
  Au      7.871946      8.490314     11.304617
  Mn      6.823126      7.736312      8.164433
11
Coordinates from ORCA-job pbe E -2509.044156872141
  Au      8.508385      8.274285      6.213980
  Au      6.240042      7.057294      5.705707
  Au      6.006007      5.157329      8.120199
  Au      4.057017      5.492613      6.162072
  Au      4.143910      7.352114      8.143436
  Au     10.832488      9.269145      7.115855
  Au      9.242845      8.540549      9.065914
  Au      5.342395      8.610513     10.123967
  Au      7.643434      6.066113      9.970796
  Au      7.869220      8.502071     11.309486
  Mn      6.820444      7.757663      8.168213
11
Coordinates from ORCA-job pbe E -2509.044202801673
  Au      8.503435      8.266643      6.212136
  Au      6.235861      7.055216      5.704412
  Au      6.016853      5.168087      8.114848
  Au      4.054477      5.489330      6.160330
  Au      4.147359      7.349658      8.139843
  Au     10.828804      9.257375      7.119545
  Au      9.240108      8.534010      9.071089
  Au      5.339335      8.611522     10.129722
  Au      7.657636      6.070997      9.959838
  Au      7.865559      8.506646     11.316877
  Mn      6.816762      7.770205      8.170985
11
Coordinates from ORCA-job pbe E -2509.044247401272
  Au      8.502421      8.255775      6.214213
  Au      6.229067      7.051083      5.702436
  Au      6.027078      5.177943      8.107018
  Au      4.051445      5.485408      6.158999
  Au      4.152495      7.349647      8.142466
  Au     10.822036      9.251915      7.122739
  Au      9.236640      8.519715      9.076975
  Au      5.334661      8.622819     10.130403
  Au      7.681454      6.079106      9.947420
  Au      7.855966      8.504444     11.324652
  Mn      6.812925      7.781836      8.172303
11
Coordinates from ORCA-job pbe E -2509.044288608780
  Au      8.504701      8.248133      6.218771
  Au      6.227509      7.053304      5.702346
  Au      6.035497      5.181402      8.103192
  Au      4.047363      5.485737      6.165591
  Au      4.153109      7.344744      8.147651
  Au     10.820797      9.251596      7.127352
  Au      9.237107      8.509297      9.079495
  Au      5.328206      8.631631     10.128378
  Au      7.692717      6.079871      9.934001
  Au      7.848455      8.505955     11.322473
  Mn      6.810727      7.788020      8.170375
11
Coordinates from ORCA-job pbe E -2509.044335762215
  Au      8.508382      8.241771      6.225553
  Au      6.226094      7.058224      5.706233
  Au      6.042336      5.180717      8.098164
  Au      4.048349      5.487143      6.167214
  Au      4.147587      7.336550      8.158825
  Au     10.823803      9.251240      7.129094
  Au      9.243400      8.496770      9.079241
  Au      5.317050      8.639720     10.128316
  Au      7.700406      6.082114      9.923906
  Au      7.841977      8.509704     11.314174
  Mn      6.806805      7.795738      8.168904
11
Coordinates from ORCA-job pbe E -2509.044372127271
  Au      8.511576      8.242153      6.231527
  Au      6.226065      7.064964      5.711410
  Au      6.050277      5.179050      8.091632
  Au      4.048911      5.489181      6.168012
  Au      4.138651      7.323092      8.170765
  Au     10.832776      9.243333      7.129277
  Au      9.252234      8.484443      9.077941
  Au      5.303557      8.643979     10.131884
  Au      7.708260      6.086908      9.916424
  Au      7.833165      8.516737     11.301462
  Mn      6.800718      7.805849      8.169290
11
Coordinates from ORCA-job pbe E -2509.044392297547
  Au      8.511511      8.246462      6.234483
  Au      6.225140      7.070030      5.715818
  Au      6.054107      5.179522      8.088171
  Au      4.053663      5.490267      6.163434
  Au      4.131759      7.311593      8.179982
  Au     10.842776      9.231652      7.127873
  Au      9.259676      8.478363      9.075650
  Au      5.291497      8.641854     10.136349
  Au      7.711435      6.090052      9.913049
  Au      7.830699      8.525705     11.292686
  Mn      6.793925      7.814189      8.172130
11
Coordinates from ORCA-job pbe E -2509.044410818965
  Au      8.512389      8.251310      6.237855
  Au      6.226236      7.074642      5.719118
  Au      6.057370      5.180607      8.086158
  Au      4.054862      5.490378      6.161352
  Au      4.126283      7.301988      8.184011
  Au     10.851214      9.222714      7.125265
  Au      9.265596      8.472254      9.073111
  Au      5.283266      8.640582     10.140406
  Au      7.715817      6.093315      9.911155
  Au      7.826330      8.531041     11.284506
  Mn      6.786825      7.820860      8.176688
11
Coordinates from ORCA-job pbe E -2509.044425880379
  Au      8.512609      8.254510      6.241987
  Au      6.227103      7.078072      5.721612
  Au      6.057703      5.182768      8.087047
  Au      4.057412      5.490012      6.158105
  Au      4.123764      7.296330      8.185467
  Au     10.857462      9.217630      7.122223
  Au      9.269490      8.468268      9.069419
  Au      5.277231      8.638612     10.142713
  Au      7.718244      6.093918      9.910009
  Au      7.825166      8.535093     11.278623
  Mn      6.780006      7.824477      8.182419
11
Coordinates from ORCA-job pbe E -2509.044433538013
  Au      8.513358      8.254514      6.246153
  Au      6.228138      7.080009      5.722230
  Au      6.057070      5.183911      8.088991
  Au      4.058372      5.489643      6.157682
  Au      4.123766      7.295476      8.184736
  Au     10.859561      9.218770      7.120713
  Au      9.270188      8.465204      9.066123
  Au      5.274591      8.640040     10.142766
  Au      7.720803      6.092504      9.908742
  Au      7.824312      8.535314     11.274964
  Mn      6.776030      7.824303      8.186523
11
Coordinates from ORCA-job pbe E -2509.044437098699
  Au      8.514238      8.253296      6.248662
  Au      6.228898      7.080692      5.722408
  Au      6.056208      5.183845      8.090302
  Au      4.058767      5.489926      6.158080
  Au      4.124339      7.296615      8.184069
  Au     10.860104      9.221595      7.120186
  Au      9.269601      8.464069      9.063571
  Au      5.273104      8.641389     10.142704
  Au      7.721872      6.090509      9.908283
  Au      7.824075      8.534792     11.272731
  Mn      6.774983      7.822962      8.188628
11
Coordinates from ORCA-job pbe E -2509.044439822276
  Au      8.515224      8.251678      6.250603
  Au      6.229624      7.080901      5.723009
  Au      6.055828      5.183492      8.090823
  Au      4.058829      5.490575      6.158737
  Au      4.124775      7.298158      8.183626
  Au     10.860736      9.224227      7.120035
  Au      9.268750      8.463119      9.061027
  Au      5.270710      8.642714     10.143331
  Au      7.723522      6.088400      9.907622
  Au      7.823392      8.534486     11.270164
  Mn      6.774800      7.821940      8.190648
11
Coordinates from ORCA-job pbe E -2509.044441882918
  Au      8.516217      8.250930      6.251554
  Au      6.230262      7.080884      5.724317
  Au      6.055401      5.182979      8.090920
  Au      4.058692      5.491282      6.159023
  Au      4.124676      7.298985      8.183506
  Au     10.861908      9.225831      7.119786
  Au      9.268554      8.462853      9.058983
  Au      5.267881      8.643511     10.144403
  Au      7.724779      6.086430      9.907211
  Au      7.822547      8.534562     11.267427
  Mn      6.775272      7.821443      8.192493
