16
Coordinates from ORCA-job pbe E -3300.902845472424
  Au      9.397410      8.583298      5.673378
  Au      6.667489      8.327688      5.220169
  Au      9.919234      9.954973      8.188197
  Au     10.466938      7.121911      7.799468
  Au      7.557979     10.586830      6.711118
  Au      5.278257      9.147987      7.551653
  Au      7.990828      6.056307      6.477819
  Au      5.037955      6.462399      6.404212
  Au      4.152896      6.947895      9.021152
  Au      6.109570      4.997973      8.533730
  Au      4.821503      9.333424     10.325036
  Au      7.409277     10.075084      9.533294
  Au      8.698830      5.551154      9.258856
  Au      9.364426      8.117271     10.303135
  Au      6.686459      7.222667     10.351494
  Fe      7.876380      8.100516      7.940888
16
Coordinates from ORCA-job pbe E -3300.906664094677
  Au      9.376036      8.584132      5.690944
  Au      6.674046      8.326079      5.238196
  Au      9.888818      9.930836      8.187721
  Au     10.435037      7.129631      7.786604
  Au      7.570847     10.558057      6.733613
  Au      5.301783      9.138778      7.560883
  Au      7.989934      6.044656      6.486679
  Au      5.061032      6.472985      6.417136
  Au      4.187475      6.951953      9.016864
  Au      6.126203      5.021957      8.529568
  Au      4.844178      9.328232     10.303365
  Au      7.392201     10.095412      9.531664
  Au      8.678825      5.566113      9.245014
  Au      9.344719      8.115255     10.292214
  Au      6.695143      7.223779     10.331233
  Fe      7.869153      8.099523      7.941900
16
Coordinates from ORCA-job pbe E -3300.908377123936
  Au      9.371774      8.582609      5.693074
  Au      6.666927      8.325560      5.251227
  Au      9.872959      9.916761      8.207439
  Au     10.414626      7.136283      7.775568
  Au      7.583071     10.547694      6.726933
  Au      5.320742      9.122003      7.565055
  Au      7.978145      6.014013      6.483386
  Au      5.086868      6.480949      6.424413
  Au      4.203793      6.948421      9.016407
  Au      6.136557      5.036708      8.517189
  Au      4.851635      9.329010     10.299053
  Au      7.377006     10.138445      9.553663
  Au      8.666081      5.580839      9.243729
  Au      9.342145      8.108835     10.276198
  Au      6.698659      7.221634     10.317622
  Fe      7.864443      8.097614      7.942642
16
Coordinates from ORCA-job pbe E -3300.909291548369
  Au      9.368313      8.583664      5.686522
  Au      6.670440      8.335997      5.252246
  Au      9.859121      9.925550      8.231017
  Au     10.409840      7.133028      7.759490
  Au      7.602384     10.542497      6.723011
  Au      5.334350      9.111199      7.575769
  Au      7.970211      5.975086      6.471536
  Au      5.094295      6.479079      6.421175
  Au      4.196151      6.939891      9.029837
  Au      6.136172      5.029675      8.506841
  Au      4.854731      9.330717     10.297175
  Au      7.370552     10.183872      9.563959
  Au      8.667111      5.588882      9.247605
  Au      9.343740      8.106801     10.273883
  Au      6.695259      7.223655     10.311780
  Fe      7.862762      8.097785      7.941754
16
Coordinates from ORCA-job pbe E -3300.909589334420
  Au      9.375956      8.578875      5.680387
  Au      6.668743      8.341010      5.253550
  Au      9.865032      9.935963      8.251626
  Au     10.405698      7.128740      7.747265
  Au      7.604866     10.552798      6.716600
  Au      5.341376      9.098215      7.584715
  Au      7.962528      5.950705      6.464496
  Au      5.098430      6.484837      6.422554
  Au      4.188350      6.928798      9.039090
  Au      6.137207      5.027438      8.501665
  Au      4.860477      9.327822     10.295858
  Au      7.370047     10.205354      9.562163
  Au      8.667671      5.598263      9.250171
  Au      9.338468      8.106968     10.277197
  Au      6.689104      7.225364     10.305489
  Fe      7.861479      8.096226      7.940771
16
Coordinates from ORCA-job pbe E -3300.909707969577
  Au      9.377758      8.579416      5.682878
  Au      6.675028      8.348572      5.257004
  Au      9.862971      9.935628      8.256029
  Au     10.402899      7.129246      7.739444
  Au      7.612588     10.552533      6.716522
  Au      5.345563      9.090797      7.589064
  Au      7.960251      5.938020      6.458472
  Au      5.099550      6.490124      6.422080
  Au      4.171599      6.914484      9.045990
  Au      6.137206      5.021339      8.499056
  Au      4.861878      9.332837     10.301833
  Au      7.375423     10.215978      9.554041
  Au      8.671977      5.606089      9.251594
  Au      9.335043      8.112970     10.277501
  Au      6.683392      7.224429     10.303567
  Fe      7.862308      8.094914      7.938524
16
Coordinates from ORCA-job pbe E -3300.909815798859
  Au      9.379482      8.583914      5.680437
  Au      6.678947      8.354326      5.259608
  Au      9.867756      9.936508      8.254149
  Au     10.406428      7.125821      7.740065
  Au      7.615793     10.556029      6.715396
  Au      5.345293      9.082565      7.595389
  Au      7.958466      5.934387      6.454307
  Au      5.099509      6.496696      6.427943
  Au      4.162171      6.906605      9.051888
  Au      6.137191      5.021995      8.499759
  Au      4.869067      9.331517     10.299517
  Au      7.374439     10.211704      9.545533
  Au      8.672721      5.610832      9.253615
  Au      9.330367      8.118757     10.281454
  Au      6.675016      7.223275     10.298364
  Fe      7.862786      8.092445      7.936176
16
Coordinates from ORCA-job pbe E -3300.909905644574
  Au      9.386392      8.587854      5.679304
  Au      6.684039      8.359770      5.262102
  Au      9.878562      9.930011      8.245953
  Au     10.408926      7.124805      7.740971
  Au      7.618441     10.560993      6.715874
  Au      5.340977      9.074282      7.602119
  Au      7.958422      5.935681      6.451849
  Au      5.100569      6.505996      6.435947
  Au      4.148070      6.896902      9.060380
  Au      6.142601      5.025992      8.503102
  Au      4.868589      9.331082     10.301282
  Au      7.375538     10.202486      9.534067
  Au      8.671587      5.618710      9.253871
  Au      9.320661      8.125594     10.282778
  Au      6.667026      7.219023     10.291464
  Fe      7.865031      8.088195      7.932535
16
Coordinates from ORCA-job pbe E -3300.909933453679
  Au      9.389470      8.589271      5.678219
  Au      6.686887      8.361162      5.264603
  Au      9.881680      9.924995      8.240197
  Au     10.411987      7.125447      7.740294
  Au      7.617798     10.558494      6.717995
  Au      5.341200      9.071151      7.605270
  Au      7.960287      5.937577      6.451205
  Au      5.102612      6.511359      6.440199
  Au      4.142052      6.895808      9.063393
  Au      6.141059      5.028737      8.502798
  Au      4.866445      9.330501     10.303335
  Au      7.373428     10.198378      9.530483
  Au      8.673567      5.621233      9.253520
  Au      9.317076      8.130512     10.282354
  Au      6.662607      7.217465     10.289322
  Fe      7.867277      8.085288      7.930412
16
Coordinates from ORCA-job pbe E -3300.909958531828
  Au      9.392895      8.590119      5.674240
  Au      6.689637      8.362108      5.264214
  Au      9.882564      9.920280      8.236461
  Au     10.415241      7.124780      7.738801
  Au      7.618399     10.556195      6.720947
  Au      5.341785      9.070770      7.608929
  Au      7.963785      5.938306      6.450744
  Au      5.104273      6.514029      6.442988
  Au      4.137325      6.896514      9.067701
  Au      6.141169      5.031373      8.503499
  Au      4.861253      9.330795     10.306938
  Au      7.369449     10.197086      9.529747
  Au      8.674845      5.623310      9.252443
  Au      9.312148      8.132995     10.280778
  Au      6.660373      7.216754     10.287323
  Fe      7.870292      8.081964      7.927847
16
Coordinates from ORCA-job pbe E -3300.909983555394
  Au      9.395826      8.589376      5.668771
  Au      6.691910      8.362275      5.263480
  Au      9.880705      9.917002      8.235296
  Au     10.419188      7.123422      7.733933
  Au      7.619259     10.552864      6.723673
  Au      5.345029      9.070960      7.614028
  Au      7.968235      5.936284      6.449891
  Au      5.107097      6.517998      6.445279
  Au      4.134170      6.899462      9.071637
  Au      6.140850      5.034457      8.504294
  Au      4.853481      9.329904     10.311763
  Au      7.363210     10.198528      9.530796
  Au      8.676600      5.624580      9.250907
  Au      9.307507      8.134919     10.279925
  Au      6.657835      7.217975     10.285588
  Fe      7.874529      8.077371      7.924338
16
Coordinates from ORCA-job pbe E -3300.909998866203
  Au      9.396434      8.588942      5.665024
  Au      6.692941      8.362493      5.262064
  Au      9.878317      9.915799      8.237672
  Au     10.420999      7.122075      7.730306
  Au      7.620372     10.552031      6.724200
  Au      5.348498      9.071966      7.618169
  Au      7.971021      5.932629      6.448842
  Au      5.108135      6.519724      6.446789
  Au      4.133490      6.900924      9.072908
  Au      6.140839      5.036174      8.505330
  Au      4.848618      9.329926     10.315218
  Au      7.358294     10.199424      9.531560
  Au      8.677857      5.625853      9.249648
  Au      9.304514      8.135008     10.279874
  Au      6.657170      7.220633     10.284492
  Fe      7.877930      8.073776      7.921503
16
Coordinates from ORCA-job pbe E -3300.910013901618
  Au      9.395525      8.588931      5.662342
  Au      6.692614      8.362527      5.261160
  Au      9.875439      9.915772      8.240758
  Au     10.422898      7.120877      7.726350
  Au      7.622044     10.552263      6.723706
  Au      5.352815      9.073190      7.622378
  Au      7.972471      5.927486      6.447375
  Au      5.109248      6.522475      6.447706
  Au      4.133868      6.901871      9.072594
  Au      6.141769      5.037695      8.507203
  Au      4.842872      9.329754     10.318685
  Au      7.353967     10.198755      9.530744
  Au      8.678450      5.626786      9.248504
  Au      9.303119      8.134502     10.282098
  Au      6.656511      7.224735     10.283887
  Fe      7.881822      8.069757      7.918107
16
Coordinates from ORCA-job pbe E -3300.910026355832
  Au      9.394028      8.590124      5.661748
  Au      6.691600      8.363019      5.260559
  Au      9.873493      9.915145      8.244770
  Au     10.423729      7.121011      7.724113
  Au      7.623780     10.553815      6.721967
  Au      5.356651      9.074645      7.625854
  Au      7.972152      5.922311      6.445861
  Au      5.109012      6.523625      6.448852
  Au      4.135111      6.901654      9.071238
  Au      6.142245      5.038722      8.509175
  Au      4.838472      9.329807     10.320675
  Au      7.350961     10.195205      9.528598
  Au      8.678838      5.628705      9.247411
  Au      9.303211      8.133784     10.284368
  Au      6.656540      7.229523     10.283530
  Fe      7.885610      8.066280      7.914877
16
Coordinates from ORCA-job pbe E -3300.910034031276
  Au      9.392711      8.592007      5.662498
  Au      6.690034      8.363276      5.261284
  Au      9.873383      9.915312      8.246130
  Au     10.424773      7.121797      7.723925
  Au      7.625036     10.555011      6.720803
  Au      5.358584      9.075417      7.626653
  Au      7.970089      5.919440      6.444951
  Au      5.108767      6.524248      6.449023
  Au      4.135983      6.901075      9.070143
  Au      6.142686      5.039076      8.510679
  Au      4.835090      9.330182     10.321210
  Au      7.349974     10.190378      9.526156
  Au      8.678343      5.630224      9.246748
  Au      9.304883      8.132906     10.286963
  Au      6.657056      7.232680     10.283738
  Fe      7.888039      8.064347      7.912695
16
Coordinates from ORCA-job pbe E -3300.910038218833
  Au      9.393012      8.593685      5.663663
  Au      6.689385      8.363654      5.262120
  Au      9.874009      9.914707      8.246745
  Au     10.425460      7.123224      7.724552
  Au      7.625852     10.555822      6.720453
  Au      5.358602      9.075383      7.626196
  Au      7.967856      5.918452      6.444598
  Au      5.107887      6.523471      6.449220
  Au      4.136301      6.900809      9.070417
  Au      6.142026      5.039002      8.511562
  Au      4.833366      9.330156     10.320066
  Au      7.350243     10.186185      9.525035
  Au      8.677856      5.631797      9.246070
  Au      9.306787      8.133124     10.287518
  Au      6.657492      7.234153     10.283846
  Fe      7.889297      8.063753      7.911538
16
Coordinates from ORCA-job pbe E -3300.910040610361
  Au      9.393792      8.594899      5.663966
  Au      6.689594      8.363680      5.263211
  Au      9.875030      9.915016      8.246371
  Au     10.426553      7.124113      7.725011
  Au      7.626194     10.555783      6.721152
  Au      5.358163      9.074777      7.625124
  Au      7.965987      5.918164      6.444515
  Au      5.107474      6.522684      6.449218
  Au      4.135947      6.900846      9.071385
  Au      6.141042      5.038857      8.512120
  Au      4.831756      9.330720     10.319034
  Au      7.350169     10.183347      9.525243
  Au      8.677379      5.633161      9.245126
  Au      9.308183      8.133007     10.287629
  Au      6.658057      7.234827     10.283871
  Fe      7.890111      8.063494      7.910623
