13
E=  -1352.92851464;c=0;m=5
Au      6.627944093281470      9.014463689423380     11.387428949238229
Au      6.593930654381170     10.743894331578041      9.365522098877991
Au      6.691167657573920      6.250631069182260     11.012478281652371
Au      9.142501389631960      7.619569953466090     10.334664596715429
Au      9.147438263848670      9.528238409637670      8.341259301800831
Au      5.911311834742140     11.851151641428800      6.927232935885730
Au      7.599918100810390      5.704774675923620      8.404566892173740
Au      7.946646218787800      7.503252609978750      6.478987660847330
Au      9.000425350786140      8.628484919650100      4.265879161233180
Au      4.818596658421000      7.058444742767960      8.979911776167411
Au      5.326189017615460      9.082796630026360      7.268597573215930
Au      7.629794021461910     10.233459267160169      5.799369385871210
Cr      7.077417188657920      8.148358559776700      8.985043596320580
