17
E=  -1788.39363728;c=0;m=5
Au      8.766086827832931      5.972625168882150      9.092578564768271
Au      8.093040067367941     10.127436906084940     10.961417150023999
Au      9.890545292400340      7.927666641178580     10.790489414042700
Au      5.853323614292440      9.562558356229390      9.299213017693679
Au      7.081655272355560      7.473161159602220     10.789814785672251
Au     10.869687760941050      7.764238868634520      8.147701779013220
Au     10.397817932972700     10.297916019567730      9.300414756278640
Au      7.902930245267790     11.308108596836050      8.378799993132191
Au      7.511659476199300      4.883042672749460      6.786420131612190
Au     10.301365361350610      5.334442392966290      6.787167215564110
Au      6.205297488395170      7.009335493092700      8.146487014970530
Au      6.291651325117290      6.958069019671090      5.306021552130630
Au      8.327319418583810      8.692009009893599      4.391797845130780
Au      6.726155519496170      9.442079293790069      6.617123331195620
Au     10.805419375820440      7.688595199399410      5.307174215719620
Au      9.608911373435321      9.908539766276430      6.617754884031380
Cr      8.553771698171159      7.288431155145380      6.602223129020190
