17
Coordinates from ORCA-job pbe E -3217.506272759836
  Au      8.766087      5.972625      9.092579
  Au      8.093040     10.127437     10.961417
  Au      9.890545      7.927667     10.790489
  Au      5.853324      9.562558      9.299213
  Au      7.081655      7.473161     10.789815
  Au     10.869688      7.764239      8.147702
  Au     10.397818     10.297916      9.300415
  Au      7.902930     11.308109      8.378800
  Au      7.511659      4.883043      6.786420
  Au     10.301365      5.334442      6.787167
  Au      6.205297      7.009335      8.146487
  Au      6.291651      6.958069      5.306022
  Au      8.327319      8.692009      4.391798
  Au      6.726156      9.442079      6.617123
  Au     10.805419      7.688595      5.307174
  Au      9.608911      9.908540      6.617755
  Cr      8.553772      7.288431      6.602223
17
Coordinates from ORCA-job pbe E -3217.510813398817
  Au      8.766182      5.976374      9.098374
  Au      8.097329     10.099258     10.919229
  Au      9.876300      7.919123     10.756173
  Au      5.874892      9.538369      9.277451
  Au      7.094741      7.472173     10.755655
  Au     10.863642      7.766975      8.145807
  Au     10.385161     10.268014      9.275247
  Au      7.906747     11.272090      8.358554
  Au      7.497051      4.888802      6.830393
  Au     10.317156      5.342631      6.831289
  Au      6.205229      7.013988      8.150610
  Au      6.261949      6.983409      5.332120
  Au      8.320665      8.740767      4.402109
  Au      6.733236      9.437374      6.619036
  Au     10.831519      7.722238      5.329689
  Au      9.603516      9.897144      6.619104
  Cr      8.551325      7.299527      6.621758
17
Coordinates from ORCA-job pbe E -3217.513120760789
  Au      8.773176      5.947636      9.126009
  Au      8.100727     10.079932     10.888675
  Au      9.870404      7.901404     10.737858
  Au      5.877239      9.515869      9.261603
  Au      7.099240      7.461725     10.735910
  Au     10.893002      7.768565      8.147344
  Au     10.390040     10.247155      9.255340
  Au      7.904848     11.255196      8.334541
  Au      7.477390      4.886551      6.876964
  Au     10.343167      5.342622      6.875302
  Au      6.169431      7.004803      8.160535
  Au      6.221612      7.007352      5.347481
  Au      8.314295      8.794459      4.390342
  Au      6.718809      9.452851      6.603524
  Au     10.871260      7.755003      5.335861
  Au      9.613576      9.908093      6.603722
  Cr      8.548423      7.309040      6.641589
17
Coordinates from ORCA-job pbe E -3217.513879283381
  Au      8.779094      5.921670      9.141654
  Au      8.107265     10.071929     10.857468
  Au      9.863469      7.897449     10.719560
  Au      5.889277      9.504979      9.249929
  Au      7.105951      7.460406     10.717131
  Au     10.914498      7.770667      8.151167
  Au     10.381733     10.232822      9.244508
  Au      7.906889     11.236844      8.326644
  Au      7.474444      4.897470      6.893782
  Au     10.345225      5.354306      6.890262
  Au      6.142884      6.994111      8.162665
  Au      6.219399      7.020225      5.360282
  Au      8.313627      8.806435      4.401826
  Au      6.707376      9.466327      6.596751
  Au     10.870524      7.765996      5.347095
  Au      9.619999      9.920365      6.600530
  Cr      8.544984      7.316254      6.661344
17
Coordinates from ORCA-job pbe E -3217.514479205780
  Au      8.787394      5.892228      9.161775
  Au      8.109136     10.068129     10.848202
  Au      9.861546      7.881816     10.705925
  Au      5.887337      9.490504      9.239258
  Au      7.108719      7.447409     10.697834
  Au     10.946556      7.772091      8.148669
  Au     10.388963     10.226461      9.237725
  Au      7.904692     11.236661      8.315447
  Au      7.472636      4.910466      6.911415
  Au     10.344965      5.369246      6.903473
  Au      6.108762      6.984669      8.165604
  Au      6.222705      7.031953      5.371190
  Au      8.314797      8.807938      4.412057
  Au      6.692334      9.483369      6.577520
  Au     10.862989      7.770842      5.354939
  Au      9.632453      9.937010      6.583525
  Cr      8.540653      7.327462      6.688040
17
Coordinates from ORCA-job pbe E -3217.515075196958
  Au      8.799789      5.849169      9.180491
  Au      8.111778     10.071911     10.841535
  Au      9.861346      7.880693     10.692165
  Au      5.893811      9.488972      9.230851
  Au      7.112595      7.443505     10.680823
  Au     10.982862      7.781671      8.155054
  Au     10.385535     10.225108      9.236367
  Au      7.905931     11.233979      8.314884
  Au      7.475342      4.919452      6.912067
  Au     10.339234      5.380837      6.897026
  Au      6.065835      6.969398      8.162136
  Au      6.239678      7.034219      5.370359
  Au      8.320620      8.784829      4.419075
  Au      6.676302      9.511447      6.569941
  Au     10.839835      7.759711      5.350675
  Au      9.641875      9.963367      6.584864
  Cr      8.534271      7.339988      6.724285
17
Coordinates from ORCA-job pbe E -3217.515576513467
  Au      8.808515      5.826018      9.193434
  Au      8.109516     10.072558     10.849635
  Au      9.859528      7.878164     10.679403
  Au      5.898688      9.486264      9.225467
  Au      7.117034      7.439093     10.662988
  Au     11.004137      7.785598      8.147105
  Au     10.384048     10.227897      9.237529
  Au      7.907167     11.236841      8.317501
  Au      7.478237      4.926769      6.910835
  Au     10.333361      5.393963      6.890921
  Au      6.039696      6.964009      8.158420
  Au      6.258304      7.037969      5.369928
  Au      8.326315      8.763791      4.432974
  Au      6.672252      9.522045      6.555792
  Au     10.814821      7.751833      5.352140
  Au      9.646803      9.969808      6.576220
  Cr      8.528215      7.355636      6.762307
17
Coordinates from ORCA-job pbe E -3217.516174992032
  Au      8.818546      5.807866      9.191591
  Au      8.104030     10.073010     10.870020
  Au      9.862516      7.875554     10.662394
  Au      5.902435      9.486101      9.216787
  Au      7.120007      7.429240     10.639314
  Au     11.016896      7.795016      8.136972
  Au     10.382509     10.234013      9.241296
  Au      7.908374     11.242919      8.324979
  Au      7.480280      4.937114      6.918128
  Au     10.324536      5.403662      6.889929
  Au      6.022649      6.962703      8.145529
  Au      6.275038      7.036177      5.370937
  Au      8.330902      8.736230      4.435609
  Au      6.675929      9.531448      6.547847
  Au     10.793589      7.736059      5.346000
  Au      9.647125      9.972820      6.574816
  Cr      8.521277      7.378326      6.810451
17
Coordinates from ORCA-job pbe E -3217.516803996095
  Au      8.823158      5.803060      9.197768
  Au      8.099866     10.078629     10.890199
  Au      9.861775      7.882785     10.653432
  Au      5.909575      9.491945      9.214950
  Au      7.124184      7.432145     10.628803
  Au     11.014379      7.799683      8.126970
  Au     10.376350     10.240268      9.244125
  Au      7.912069     11.244389      8.332935
  Au      7.483961      4.933093      6.900776
  Au     10.319940      5.401290      6.872984
  Au      6.015103      6.966374      8.141479
  Au      6.288271      7.026846      5.360240
  Au      8.331435      8.725766      4.437000
  Au      6.687249      9.526289      6.545787
  Au     10.784854      7.726408      5.341805
  Au      9.639862      9.958327      6.575551
  Cr      8.514609      7.400960      6.857795
17
Coordinates from ORCA-job pbe E -3217.517150408026
  Au      8.829998      5.793355      9.193258
  Au      8.096136     10.075398     10.901216
  Au      9.859071      7.885957     10.640678
  Au      5.917447      9.492899      9.212668
  Au      7.129278      7.431528     10.611260
  Au     11.017313      7.805383      8.120022
  Au     10.369961     10.243342      9.249196
  Au      7.913981     11.243889      8.343279
  Au      7.487347      4.940510      6.903049
  Au     10.311456      5.401237      6.872662
  Au      6.006853      6.968554      8.131555
  Au      6.295121      7.017411      5.359686
  Au      8.331700      8.714276      4.425417
  Au      6.691879      9.527213      6.544022
  Au     10.782728      7.714261      5.332631
  Au      9.637789      9.955387      6.575538
  Cr      8.508579      7.427656      6.906462
17
Coordinates from ORCA-job pbe E -3217.517283280592
  Au      8.834513      5.775263      9.203318
  Au      8.097530     10.077430     10.897205
  Au      9.861849      7.884061     10.632686
  Au      5.918326      9.492646      9.204296
  Au      7.129942      7.427119     10.603536
  Au     11.026392      7.805335      8.121425
  Au     10.370696     10.239657      9.239597
  Au      7.916385     11.237561      8.333432
  Au      7.489839      4.947424      6.901459
  Au     10.308085      5.406051      6.868363
  Au      5.990154      6.961541      8.129633
  Au      6.302310      7.018219      5.360356
  Au      8.331582      8.717830      4.430965
  Au      6.687709      9.529189      6.542026
  Au     10.778972      7.715850      5.335295
  Au      9.638649      9.955867      6.574702
  Cr      8.503706      7.447211      6.944305
17
Coordinates from ORCA-job pbe E -3217.517393368540
  Au      8.837945      5.762360      9.215692
  Au      8.098506     10.069442     10.887523
  Au      9.859091      7.879577     10.626461
  Au      5.919293      9.487409      9.202671
  Au      7.131788      7.423298     10.593369
  Au     11.040479      7.802772      8.121672
  Au     10.371435     10.235305      9.235528
  Au      7.916644     11.232400      8.329262
  Au      7.494003      4.957885      6.904636
  Au     10.302189      5.412094      6.867468
  Au      5.973108      6.959390      8.133730
  Au      6.310591      7.016932      5.360385
  Au      8.331490      8.717430      4.430737
  Au      6.676701      9.533970      6.534933
  Au     10.776690      7.714679      5.336105
  Au      9.646172      9.964552      6.564781
  Cr      8.500513      7.468761      6.977645
17
Coordinates from ORCA-job pbe E -3217.517474385987
  Au      8.840884      5.752731      9.221845
  Au      8.100741     10.062972     10.873925
  Au      9.861549      7.876885     10.628992
  Au      5.914354      9.486530      9.201634
  Au      7.129713      7.419365     10.594526
  Au     11.049296      7.795787      8.124319
  Au     10.375290     10.230809      9.228973
  Au      7.916538     11.226864      8.319866
  Au      7.496771      4.965909      6.906451
  Au     10.297044      5.413974      6.869560
  Au      5.963809      6.954330      8.132935
  Au      6.311897      7.016618      5.365305
  Au      8.330291      8.727913      4.433474
  Au      6.665478      9.533122      6.529447
  Au     10.779964      7.719651      5.339614
  Au      9.653084      9.969782      6.555187
  Cr      8.499936      7.485013      6.996546
17
Coordinates from ORCA-job pbe E -3217.517542036377
  Au      8.842413      5.750669      9.225694
  Au      8.101899     10.054313     10.863153
  Au      9.864591      7.872436     10.630733
  Au      5.908375      9.485083      9.201002
  Au      7.127213      7.412946     10.593340
  Au     11.054621      7.790102      8.126006
  Au     10.378740     10.227077      9.222230
  Au      7.916978     11.221588      8.311889
  Au      7.501043      4.975738      6.908104
  Au     10.289554      5.419136      6.868061
  Au      5.959374      6.954537      8.134485
  Au      6.320552      7.014733      5.366743
  Au      8.329561      8.726691      4.437960
  Au      6.655699      9.533315      6.526596
  Au     10.776000      7.718225      5.343351
  Au      9.659703      9.978191      6.549492
  Cr      8.500322      7.503476      7.013761
17
Coordinates from ORCA-job pbe E -3217.517593784500
  Au      8.842363      5.757817      9.223504
  Au      8.102153     10.046880     10.853635
  Au      9.867906      7.872165     10.638456
  Au      5.901616      9.486635      9.203545
  Au      7.124370      7.410739     10.598024
  Au     11.053791      7.783627      8.131654
  Au     10.381638     10.223598      9.219824
  Au      7.915512     11.216621      8.306884
  Au      7.502758      4.979765      6.908110
  Au     10.285238      5.418076      6.863854
  Au      5.965677      6.956559      8.134833
  Au      6.324000      7.011885      5.366482
  Au      8.329468      8.727598      4.442564
  Au      6.647683      9.530175      6.527397
  Au     10.773397      7.717933      5.344507
  Au      9.665651      9.981922      6.543567
  Cr      8.503419      7.516262      7.015761
17
Coordinates from ORCA-job pbe E -3217.517616124989
  Au      8.839197      5.768909      9.217036
  Au      8.103352     10.044512     10.848302
  Au      9.869566      7.872335     10.647620
  Au      5.895601      9.489315      9.209195
  Au      7.122170      7.412087     10.606543
  Au     11.046861      7.775255      8.132671
  Au     10.382280     10.222729      9.217051
  Au      7.916831     11.213444      8.304361
  Au      7.503329      4.977305      6.906696
  Au     10.285931      5.415080      6.860999
  Au      5.976312      6.959246      8.136105
  Au      6.323367      7.008029      5.362347
  Au      8.327085      8.729325      4.444524
  Au      6.642989      9.524649      6.529523
  Au     10.776015      7.717788      5.348325
  Au      9.668437      9.986683      6.545397
  Cr      8.507314      7.521564      7.005902
17
Coordinates from ORCA-job pbe E -3217.517630207045
  Au      8.839435      5.772759      9.215069
  Au      8.102729     10.047036     10.850257
  Au      9.869131      7.873655     10.649304
  Au      5.895529      9.489345      9.209535
  Au      7.123134      7.414599     10.606937
  Au     11.045628      7.775488      8.136552
  Au     10.382119     10.221500      9.219258
  Au      7.915366     11.212363      8.304871
  Au      7.503555      4.975890      6.903656
  Au     10.285518      5.411766      6.858371
  Au      5.980054      6.960385      8.135698
  Au      6.321890      7.006795      5.362648
  Au      8.327755      8.728379      4.445302
  Au      6.642519      9.524078      6.531810
  Au     10.774795      7.717346      5.346580
  Au      9.669091      9.985517      6.545082
  Cr      8.508391      7.521354      7.001670
17
Coordinates from ORCA-job pbe E -3217.517637691394
  Au      8.838995      5.772352      9.214199
  Au      8.102931     10.051019     10.853080
  Au      9.868020      7.874356     10.649000
  Au      5.896668      9.489079      9.210091
  Au      7.124647      7.417004     10.606046
  Au     11.045707      7.775299      8.137180
  Au     10.381248     10.220350      9.220104
  Au      7.915072     11.211351      8.305494
  Au      7.504027      4.975378      6.901980
  Au     10.286085      5.410919      6.857591
  Au      5.979971      6.959396      8.135776
  Au      6.321019      7.006121      5.361909
  Au      8.327399      8.728095      4.445344
  Au      6.642134      9.524337      6.532232
  Au     10.775370      7.717167      5.347020
  Au      9.668935      9.985089      6.545296
  Cr      8.508409      7.520941      7.000256
17
Coordinates from ORCA-job pbe E -3217.517646736517
  Au      8.838464      5.772497      9.213240
  Au      8.102797     10.058354     10.857965
  Au      9.865882      7.874709     10.650070
  Au      5.897516      9.487359      9.210769
  Au      7.127266      7.420964     10.604354
  Au     11.046409      7.772490      8.138474
  Au     10.379577     10.217781      9.220206
  Au      7.915090     11.207635      8.304862
  Au      7.505127      4.976066      6.899138
  Au     10.286411      5.409085      6.856298
  Au      5.980805      6.957166      8.136033
  Au      6.318436      7.005885      5.362394
  Au      8.326300      8.728652      4.446022
  Au      6.639914      9.522946      6.531713
  Au     10.777026      7.717080      5.347539
  Au      9.670505      9.986319      6.545220
  Cr      8.509114      7.523266      6.998300
17
Coordinates from ORCA-job pbe E -3217.517648858006
  Au      8.837887      5.771985      9.212312
  Au      8.103676     10.060186     10.859820
  Au      9.866218      7.874307     10.650002
  Au      5.896996      9.487424      9.211904
  Au      7.128105      7.422186     10.603910
  Au     11.046355      7.769905      8.138549
  Au     10.379287     10.214859      9.218523
  Au      7.915083     11.204809      8.304006
  Au      7.506902      4.977432      6.898331
  Au     10.286123      5.410020      6.857605
  Au      5.979459      6.956454      8.136802
  Au      6.318503      7.004690      5.361040
  Au      8.326861      8.728547      4.446303
  Au      6.636312      9.522838      6.531317
  Au     10.777935      7.718263      5.349609
  Au      9.671689      9.987055      6.542939
  Cr      8.509246      7.527298      6.999626
17
Coordinates from ORCA-job pbe E -3217.517650606939
  Au      8.838456      5.771629      9.213403
  Au      8.102965     10.059260     10.859891
  Au      9.866398      7.874293     10.650702
  Au      5.896744      9.487084      9.211172
  Au      7.127936      7.421573     10.603354
  Au     11.047438      7.769148      8.138592
  Au     10.378822     10.214734      9.218069
  Au      7.915183     11.203530      8.303410
  Au      7.506641      4.979133      6.899189
  Au     10.285648      5.410416      6.856696
  Au      5.979364      6.955868      8.136614
  Au      6.318747      7.005525      5.361981
  Au      8.326327      8.728511      4.446853
  Au      6.635823      9.522442      6.530115
  Au     10.777813      7.717389      5.349004
  Au      9.672941      9.988095      6.541951
  Cr      8.509393      7.529626      7.001602
