17
Coordinates from ORCA-job pbe E -3324.030987096551
  Au      7.122685      5.110067      6.473573
  Au      5.687632      5.908388      8.761465
  Au      7.388059      7.897461     10.215500
  Au      9.762249      8.197149      8.730311
  Au      9.263238     10.140574      6.734826
  Au      8.173020     10.529748      9.329397
  Au      8.901458      7.373924      6.079651
  Au      4.645713      7.627968     10.709915
  Au      5.450396     10.013132      9.490683
  Au      3.836729     10.809277      7.304059
  Au      3.803422      8.086771      8.082472
  Au      4.917500      8.937587      5.572859
  Au      4.467994      6.196000      6.161647
  Au      7.506588      9.610288      4.652242
  Au      6.587506     10.891359      7.001099
  Au      6.579839      7.001754      4.440760
  Mn      8.106591      6.422713      8.310854
17
Coordinates from ORCA-job pbe E -3324.035356168628
  Au      7.106771      5.108798      6.452272
  Au      5.672936      5.912983      8.758742
  Au      7.381103      7.910879     10.219514
  Au      9.769431      8.222726      8.728679
  Au      9.242379     10.131082      6.738806
  Au      8.157664     10.520639      9.317407
  Au      8.897745      7.381202      6.074017
  Au      4.649644      7.640015     10.688590
  Au      5.457044     10.002270      9.474882
  Au      3.862750     10.785735      7.305550
  Au      3.822631      8.090652      8.077354
  Au      4.933135      8.933331      5.590606
  Au      4.476013      6.214180      6.169787
  Au      7.495424      9.601877      4.676690
  Au      6.586599     10.867565      7.004619
  Au      6.577221      7.014064      4.460263
  Mn      8.112130      6.416162      8.313534
17
Coordinates from ORCA-job pbe E -3324.038137792185
  Au      7.086002      5.088856      6.416756
  Au      5.649291      5.903348      8.757395
  Au      7.381152      7.928698     10.238672
  Au      9.797043      8.258599      8.734671
  Au      9.235250     10.124614      6.740281
  Au      8.150534     10.519674      9.313353
  Au      8.907022      7.382883      6.060746
  Au      4.644615      7.648816     10.682102
  Au      5.457907     10.000982      9.470866
  Au      3.862799     10.783817      7.307470
  Au      3.825997      8.092364      8.075400
  Au      4.939087      8.932446      5.596904
  Au      4.476500      6.221841      6.172460
  Au      7.490003      9.599428      4.686083
  Au      6.586129     10.858772      7.005254
  Au      6.578337      7.018224      4.468637
  Mn      8.132953      6.390797      8.324266
17
Coordinates from ORCA-job pbe E -3324.039389197225
  Au      7.066453      5.095671      6.404756
  Au      5.640411      5.903624      8.744614
  Au      7.385124      7.943919     10.237021
  Au      9.791745      8.281412      8.735838
  Au      9.223363     10.106900      6.742864
  Au      8.140069     10.508497      9.302087
  Au      8.907832      7.380803      6.062443
  Au      4.657022      7.649879     10.666136
  Au      5.461671      9.994813      9.461934
  Au      3.858582     10.784658      7.310857
  Au      3.836795      8.094528      8.072493
  Au      4.942730      8.934522      5.604742
  Au      4.487650      6.235239      6.179962
  Au      7.485505      9.597387      4.693908
  Au      6.581764     10.851053      7.006034
  Au      6.585489      7.023821      4.487345
  Mn      8.148412      6.367435      8.338276
17
Coordinates from ORCA-job pbe E -3324.040333355066
  Au      7.058752      5.089265      6.402089
  Au      5.636250      5.896773      8.736038
  Au      7.393850      7.951877     10.239670
  Au      9.795066      8.288243      8.744128
  Au      9.213629     10.094035      6.735814
  Au      8.131847     10.509709      9.291916
  Au      8.911381      7.372207      6.069694
  Au      4.669512      7.644698     10.658632
  Au      5.457719      9.995619      9.452141
  Au      3.849145     10.791172      7.312770
  Au      3.840022      8.104021      8.068871
  Au      4.938990      8.948392      5.607246
  Au      4.489566      6.247705      6.178962
  Au      7.476125      9.606708      4.691826
  Au      6.568833     10.853675      7.000477
  Au      6.594823      7.034705      4.496312
  Mn      8.175110      6.325356      8.364726
17
Coordinates from ORCA-job pbe E -3324.041276604270
  Au      7.055480      5.093518      6.408490
  Au      5.639166      5.893557      8.726052
  Au      7.403011      7.955504     10.235402
  Au      9.786718      8.287405      8.747961
  Au      9.203989     10.080679      6.731113
  Au      8.128178     10.511670      9.281792
  Au      8.908097      7.363377      6.084936
  Au      4.686981      7.635237     10.651134
  Au      5.455612      9.996781      9.447836
  Au      3.831490     10.805325      7.314206
  Au      3.840713      8.108780      8.066908
  Au      4.932649      8.958919      5.602093
  Au      4.492777      6.257030      6.174896
  Au      7.470768      9.616730      4.683947
  Au      6.561613     10.862906      6.994414
  Au      6.603281      7.043515      4.507033
  Mn      8.200096      6.283225      8.393101
17
Coordinates from ORCA-job pbe E -3324.042235120424
  Au      7.061769      5.101181      6.424374
  Au      5.648805      5.893995      8.715920
  Au      7.411780      7.954395     10.225017
  Au      9.773702      8.274045      8.749031
  Au      9.194733     10.071356      6.726366
  Au      8.125121     10.516921      9.274251
  Au      8.899573      7.354070      6.106806
  Au      4.703504      7.626840     10.643352
  Au      5.453154      9.998534      9.441945
  Au      3.821350     10.813849      7.314857
  Au      3.841719      8.115070      8.064025
  Au      4.922997      8.971748      5.597275
  Au      4.492353      6.264717      6.169511
  Au      7.464385      9.631333      4.671045
  Au      6.551278     10.874684      6.988935
  Au      6.609010      7.052251      4.514953
  Mn      8.225387      6.239169      8.423650
17
Coordinates from ORCA-job pbe E -3324.043001308193
  Au      7.071006      5.114564      6.438466
  Au      5.659690      5.897661      8.708244
  Au      7.417124      7.950992     10.213350
  Au      9.758658      8.260370      8.743171
  Au      9.183651     10.062770      6.721097
  Au      8.125304     10.524209      9.266946
  Au      8.884878      7.347539      6.132535
  Au      4.714868      7.619295     10.640093
  Au      5.452376     10.000018      9.439822
  Au      3.814020     10.820422      7.314933
  Au      3.841417      8.117616      8.062306
  Au      4.917501      8.980735      5.589471
  Au      4.491438      6.270218      6.161066
  Au      7.457740      9.644872      4.659869
  Au      6.546916     10.884815      6.982089
  Au      6.613858      7.062700      4.523386
  Mn      8.250173      6.195361      8.454466
17
Coordinates from ORCA-job pbe E -3324.043561268917
  Au      7.078571      5.125756      6.446785
  Au      5.666353      5.907796      8.700655
  Au      7.416015      7.951617     10.199806
  Au      9.748058      8.251210      8.736038
  Au      9.177415     10.058179      6.716987
  Au      8.122715     10.531151      9.262977
  Au      8.874378      7.338940      6.156703
  Au      4.723357      7.616403     10.633683
  Au      5.452663      9.997564      9.437615
  Au      3.811755     10.819642      7.319129
  Au      3.844363      8.118986      8.062499
  Au      4.911103      8.987485      5.584999
  Au      4.487754      6.275495      6.155966
  Au      7.452372      9.660342      4.644780
  Au      6.542148     10.893235      6.979022
  Au      6.617074      7.069071      4.527472
  Mn      8.274526      6.151288      8.486196
17
Coordinates from ORCA-job pbe E -3324.043932251621
  Au      7.085118      5.140264      6.451634
  Au      5.673685      5.916703      8.694653
  Au      7.415205      7.950684     10.187406
  Au      9.736746      8.245120      8.725055
  Au      9.167390     10.052460      6.707410
  Au      8.124581     10.538373      9.256744
  Au      8.859224      7.335009      6.180599
  Au      4.719399      7.612561     10.642866
  Au      5.454758      9.997812      9.438201
  Au      3.813186     10.817042      7.321361
  Au      3.844200      8.117453      8.061372
  Au      4.912246      8.991875      5.579421
  Au      4.486403      6.279027      6.146936
  Au      7.444539      9.673724      4.635226
  Au      6.542390     10.896494      6.972702
  Au      6.623152      7.081707      4.532057
  Mn      8.298398      6.107851      8.517669
17
Coordinates from ORCA-job pbe E -3324.044125743092
  Au      7.090290      5.150396      6.455136
  Au      5.676599      5.938683      8.689880
  Au      7.402299      7.954018     10.169299
  Au      9.729299      8.239844      8.716768
  Au      9.166698     10.052858      6.697444
  Au      8.126631     10.543136      9.257014
  Au      8.849638      7.330062      6.199889
  Au      4.714887      7.615197     10.643685
  Au      5.459070      9.989586      9.441826
  Au      3.815302     10.808545      7.330623
  Au      3.849337      8.111144      8.066055
  Au      4.911632      8.991563      5.576187
  Au      4.482982      6.278060      6.142814
  Au      7.438688      9.691153      4.617623
  Au      6.544211     10.899202      6.971506
  Au      6.628709      7.088268      4.528195
  Mn      8.314351      6.072443      8.547367
17
Coordinates from ORCA-job pbe E -3324.044210129962
  Au      7.088215      5.152561      6.452834
  Au      5.677122      5.945497      8.689618
  Au      7.397328      7.954883     10.163982
  Au      9.728079      8.243005      8.714829
  Au      9.169046     10.053982      6.693986
  Au      8.130033     10.543517      9.256178
  Au      8.849520      7.330739      6.199824
  Au      4.703334      7.617004     10.654646
  Au      5.462391      9.989259      9.443061
  Au      3.819817     10.802597      7.333632
  Au      3.849585      8.107836      8.065220
  Au      4.914437      8.987527      5.578937
  Au      4.483581      6.275817      6.140079
  Au      7.435917      9.695538      4.615008
  Au      6.546909     10.894994      6.974059
  Au      6.631283      7.088833      4.525077
  Mn      8.314024      6.070569      8.550342
17
Coordinates from ORCA-job pbe E -3324.044277207797
  Au      7.084421      5.152836      6.449655
  Au      5.677640      5.958485      8.693134
  Au      7.385682      7.953895     10.156666
  Au      9.728851      8.247153      8.714691
  Au      9.174166     10.055411      6.685551
  Au      8.137440     10.542617      9.257001
  Au      8.850761      7.334418      6.194249
  Au      4.685918      7.623471     10.665453
  Au      5.466485      9.985748      9.447196
  Au      3.823738     10.795928      7.337793
  Au      3.850890      8.101077      8.067193
  Au      4.921085      8.979571      5.584820
  Au      4.485694      6.269918      6.137229
  Au      7.431078      9.699364      4.615141
  Au      6.551931     10.885912      6.978180
  Au      6.637188      7.090969      4.518960
  Mn      8.307652      6.077386      8.548403
17
Coordinates from ORCA-job pbe E -3324.044291473789
  Au      7.083492      5.154001      6.449661
  Au      5.680151      5.960572      8.693906
  Au      7.384383      7.951965     10.153910
  Au      9.726956      8.248598      8.713830
  Au      9.175582     10.055658      6.686046
  Au      8.137443     10.541829      9.256653
  Au      8.853492      7.333022      6.193084
  Au      4.682830      7.626247     10.665669
  Au      5.467632      9.986313      9.446770
  Au      3.823167     10.796742      7.337886
  Au      3.850663      8.100603      8.066318
  Au      4.920662      8.977406      5.588118
  Au      4.485780      6.269234      6.137229
  Au      7.430685      9.700471      4.615056
  Au      6.552046     10.883916      6.981791
  Au      6.637557      7.089686      4.518085
  Mn      8.308100      6.077896      8.547300
17
Coordinates from ORCA-job pbe E -3324.044304203355
  Au      7.082916      5.156037      6.449945
  Au      5.684193      5.962738      8.695515
  Au      7.383478      7.947688     10.151468
  Au      9.725865      8.248371      8.713457
  Au      9.176362     10.055219      6.684708
  Au      8.137839     10.541459      9.257477
  Au      8.856780      7.330953      6.191803
  Au      4.679707      7.630019     10.663736
  Au      5.466727      9.987523      9.446285
  Au      3.820922     10.799421      7.336333
  Au      3.849764      8.101100      8.065384
  Au      4.920629      8.975750      5.592131
  Au      4.486380      6.268820      6.138018
  Au      7.428725      9.701303      4.615730
  Au      6.550795     10.881835      6.984384
  Au      6.638333      7.090208      4.518535
  Mn      8.311203      6.075716      8.546403
17
Coordinates from ORCA-job pbe E -3324.044311000219
  Au      7.083709      5.155831      6.450748
  Au      5.687833      5.964306      8.697735
  Au      7.382054      7.944177     10.148880
  Au      9.724063      8.248971      8.712482
  Au      9.175171     10.054200      6.684171
  Au      8.136850     10.539482      9.258155
  Au      8.860339      7.329183      6.190512
  Au      4.678226      7.633356     10.662076
  Au      5.465917      9.989089      9.445748
  Au      3.819106     10.803183      7.334681
  Au      3.847638      8.102634      8.065341
  Au      4.920720      8.975696      5.594658
  Au      4.485607      6.267078      6.139355
  Au      7.427568      9.702849      4.616684
  Au      6.550519     10.879966      6.986350
  Au      6.639444      7.091550      4.518064
  Mn      8.315856      6.072607      8.545671
17
Coordinates from ORCA-job pbe E -3324.044317576752
  Au      7.083306      5.157535      6.450501
  Au      5.689746      5.966562      8.698584
  Au      7.380968      7.941754     10.147573
  Au      9.724394      8.248130      8.712740
  Au      9.174967     10.054048      6.683315
  Au      8.136583     10.538482      9.260500
  Au      8.863021      7.327739      6.188995
  Au      4.676926      7.634399     10.661291
  Au      5.463796      9.990656      9.445745
  Au      3.817980     10.804641      7.332982
  Au      3.846067      8.103605      8.064715
  Au      4.921069      8.974566      5.595939
  Au      4.486320      6.266850      6.142118
  Au      7.426593      9.703154      4.616007
  Au      6.550167     10.879576      6.986561
  Au      6.639083      7.092359      4.519502
  Mn      8.319632      6.070102      8.544246
17
Coordinates from ORCA-job pbe E -3324.044323995474
  Au      7.083555      5.158045      6.450431
  Au      5.690870      5.968995      8.699354
  Au      7.379218      7.940617     10.145920
  Au      9.724331      8.247922      8.712524
  Au      9.173951     10.053663      6.683515
  Au      8.135956     10.536161      9.262624
  Au      8.865110      7.327276      6.187229
  Au      4.675525      7.635020     10.662014
  Au      5.461701      9.991968      9.445922
  Au      3.818721     10.804827      7.331970
  Au      3.844018      8.105038      8.065016
  Au      4.921668      8.973936      5.595916
  Au      4.486782      6.265691      6.145148
  Au      7.426533      9.703633      4.615083
  Au      6.550897     10.879391      6.986427
  Au      6.638740      7.093013      4.520416
  Mn      8.323044      6.068963      8.541804
17
Coordinates from ORCA-job pbe E -3324.044327812525
  Au      7.083892      5.157631      6.450606
  Au      5.691750      5.971715      8.700033
  Au      7.377113      7.940028     10.143943
  Au      9.724428      8.247759      8.712561
  Au      9.172644     10.053383      6.684263
  Au      8.134805     10.533716      9.264146
  Au      8.866460      7.327413      6.185527
  Au      4.674044      7.635284     10.663560
  Au      5.460437      9.992932      9.446339
  Au      3.820345     10.804354      7.331104
  Au      3.842184      8.105925      8.065422
  Au      4.922092      8.973218      5.595272
  Au      4.487098      6.264948      6.148022
  Au      7.426936      9.704122      4.614207
  Au      6.552195     10.879569      6.986435
  Au      6.638303      7.093299      4.521165
  Mn      8.325892      6.068862      8.538707
17
Coordinates from ORCA-job pbe E -3324.044329009249
  Au      7.083788      5.157059      6.450680
  Au      5.692239      5.972469      8.700247
  Au      7.376599      7.939765     10.143253
  Au      9.724622      8.247929      8.712807
  Au      9.172443     10.053047      6.684847
  Au      8.134687     10.533115      9.264112
  Au      8.866438      7.327652      6.185253
  Au      4.673203      7.635696     10.664003
  Au      5.460162      9.992867      9.446571
  Au      3.820993     10.804016      7.330966
  Au      3.841824      8.106071      8.065801
  Au      4.921930      8.973209      5.594891
  Au      4.487359      6.264933      6.148380
  Au      7.426942      9.704173      4.614167
  Au      6.552371     10.879947      6.986479
  Au      6.638301      7.093039      4.521439
  Mn      8.326718      6.069170      8.537417
