15
E=  -1599.73647296;c=0;m=5
Au      5.491849126039020      7.845692681013600      7.492577006864170
Au      9.473475880437160      7.228567118402120      9.800449487656010
Au      9.897962584262791      9.526814485239321      8.272015338498020
Au      6.868135189404730      6.220009543885960      9.465650034011629
Au      7.899972130430250     11.496801014818921      8.518308077016099
Au      5.279640702041900     10.472863112533220      8.407200984445060
Au      7.311944585030400      8.991843866933671      9.664128302527571
Au     10.820588199958051      7.037635853261720      7.337891414547210
Au      9.439975674897809     11.333534880573080      6.167170423970450
Au      6.945273200796400      9.998127119626741      6.169041944393830
Au      9.085842079648630      5.834668327355830      5.508983129191810
Au      6.814152663298140      7.483971119132390      4.959579377283090
Au      9.410568551522950      8.657013946057409      5.382766081378550
Au      6.632623329265520      5.327201831053320      6.829710599158230
Fe      8.173306522966280      7.395105770112710      7.449763919058260
