16
E=  -1708.51255463;c=0;m=6
Au      8.230201692362071     10.969411424045010      7.728471629945620
Au      7.861872401969930     10.650457118046051      4.940016091644870
Au      6.868324274326260      9.248540026507181      9.458597636737890
Au      9.757689987880370      8.939761218535621      8.903991221988450
Au      4.218074235168650      8.393154515185181      8.353875601322420
Au      5.851821793835320      9.867456837195370      6.703373368239430
Au      8.440001037637710      6.846236251304560     10.087843423794080
Au      5.641223119417850      6.763016881432750     10.176687151370450
Au      9.106957857355040      6.583434150502440      7.237569837194700
Au      6.771846988817540      5.352993637668550      5.820300020973370
Au      7.514365682271950      7.888539564334480      5.054245219386380
Au      9.863568902605641      9.024959480044521      6.108007116287280
Au      4.761623615712060      7.456394445287620      5.647699265283510
Au      4.589355486759520      5.532717023368940      7.782516575701500
Au      7.280494025114650      4.811529442553170      8.550490258650679
Fe      6.571447578765220      7.276208533988510      7.688282531479490
