16
Coordinates from ORCA-job pbe E -3300.914966972693
  Au      8.230202     10.969411      7.728472
  Au      7.861872     10.650457      4.940016
  Au      6.868324      9.248540      9.458598
  Au      9.757690      8.939761      8.903991
  Au      4.218074      8.393155      8.353876
  Au      5.851822      9.867457      6.703373
  Au      8.440001      6.846236     10.087843
  Au      5.641223      6.763017     10.176687
  Au      9.106958      6.583434      7.237570
  Au      6.771847      5.352994      5.820300
  Au      7.514366      7.888540      5.054245
  Au      9.863569      9.024959      6.108007
  Au      4.761624      7.456394      5.647699
  Au      4.589355      5.532717      7.782517
  Au      7.280494      4.811529      8.550490
  Fe      6.571448      7.276209      7.688283
16
Coordinates from ORCA-job pbe E -3300.917423478602
  Au      8.205471     10.926654      7.734893
  Au      7.839626     10.609629      4.965971
  Au      6.869597      9.242797      9.446135
  Au      9.728105      8.923365      8.893809
  Au      4.252561      8.406885      8.343340
  Au      5.851369      9.839699      6.716352
  Au      8.433782      6.858632     10.066569
  Au      5.653817      6.789032     10.157649
  Au      9.095953      6.592100      7.237120
  Au      6.789383      5.386826      5.826216
  Au      7.502351      7.874568      5.078616
  Au      9.827092      8.996161      6.126101
  Au      4.797280      7.475531      5.661034
  Au      4.605208      5.554011      7.772228
  Au      7.292710      4.838162      8.531795
  Fe      6.584564      7.290759      7.684139
16
Coordinates from ORCA-job pbe E -3300.917696659432
  Au      8.199249     10.909044      7.740582
  Au      7.852367     10.614517      4.971570
  Au      6.872226      9.243949      9.445433
  Au      9.710235      8.910289      8.891438
  Au      4.240479      8.399270      8.360401
  Au      5.858029      9.862592      6.706341
  Au      8.425087      6.860317     10.055600
  Au      5.664989      6.806995     10.159720
  Au      9.097215      6.594752      7.237741
  Au      6.789122      5.365719      5.831038
  Au      7.514936      7.889794      5.062449
  Au      9.815477      8.985067      6.137487
  Au      4.781117      7.463891      5.659430
  Au      4.608464      5.554635      7.774011
  Au      7.311017      4.847745      8.526719
  Fe      6.588857      7.296231      7.682007
16
Coordinates from ORCA-job pbe E -3300.918262925339
  Au      8.193632     10.911098      7.742649
  Au      7.846500     10.621882      4.955681
  Au      6.872241      9.246987      9.458501
  Au      9.715726      8.909574      8.897845
  Au      4.243809      8.403637      8.359628
  Au      5.841562      9.862268      6.708108
  Au      8.418225      6.849148     10.061949
  Au      5.659028      6.813878     10.161949
  Au      9.106792      6.586211      7.241281
  Au      6.792941      5.369425      5.829184
  Au      7.509112      7.877020      5.053493
  Au      9.815715      8.980389      6.134072
  Au      4.791336      7.468222      5.665456
  Au      4.612735      5.559829      7.771238
  Au      7.314362      4.843241      8.519451
  Fe      6.595154      7.302001      7.681482
16
Coordinates from ORCA-job pbe E -3300.918736913781
  Au      8.177954     10.901065      7.727510
  Au      7.829855     10.608227      4.954052
  Au      6.875212      9.254850      9.484843
  Au      9.721352      8.913443      8.899106
  Au      4.248751      8.419549      8.356019
  Au      5.830710      9.863515      6.709636
  Au      8.410592      6.830728     10.076116
  Au      5.641031      6.822265     10.170016
  Au      9.128712      6.571175      7.248778
  Au      6.803757      5.378006      5.818956
  Au      7.506296      7.868011      5.046474
  Au      9.793047      8.978909      6.126389
  Au      4.808887      7.481260      5.668930
  Au      4.624021      5.571157      7.767543
  Au      7.316726      4.826239      8.506556
  Fe      6.611967      7.316411      7.681042
16
Coordinates from ORCA-job pbe E -3300.919215315312
  Au      8.170271     10.882996      7.730640
  Au      7.829368     10.612424      4.947886
  Au      6.878201      9.261902      9.502109
  Au      9.708910      8.897833      8.905759
  Au      4.252562      8.428370      8.356589
  Au      5.809889      9.871637      6.703807
  Au      8.397644      6.822697     10.072413
  Au      5.636139      6.840154     10.170455
  Au      9.144868      6.562119      7.252946
  Au      6.811480      5.381352      5.814889
  Au      7.499796      7.858166      5.025903
  Au      9.778399      8.968821      6.136714
  Au      4.808128      7.477723      5.673496
  Au      4.646211      5.579198      7.779086
  Au      7.326814      4.825187      8.491521
  Fe      6.630188      7.334231      7.677753
16
Coordinates from ORCA-job pbe E -3300.919627897742
  Au      8.165813     10.866964      7.726220
  Au      7.829273     10.613245      4.946531
  Au      6.876183      9.267362      9.518304
  Au      9.695634      8.882560      8.911434
  Au      4.257153      8.434325      8.356631
  Au      5.800845      9.884554      6.691271
  Au      8.381543      6.812197     10.068424
  Au      5.631315      6.851794     10.171375
  Au      9.157366      6.549996      7.254660
  Au      6.817100      5.385066      5.813465
  Au      7.497443      7.862378      5.006327
  Au      9.761486      8.965982      6.144102
  Au      4.803956      7.467224      5.681520
  Au      4.669218      5.586231      7.793897
  Au      7.333686      4.822840      8.480951
  Fe      6.650853      7.352092      7.676854
16
Coordinates from ORCA-job pbe E -3300.919909201344
  Au      8.162730     10.849860      7.725494
  Au      7.827997     10.614032      4.945066
  Au      6.872449      9.276612      9.530401
  Au      9.682136      8.869429      8.914605
  Au      4.262585      8.442318      8.352519
  Au      5.795093      9.892265      6.675209
  Au      8.371800      6.805309     10.066459
  Au      5.623318      6.857583     10.177401
  Au      9.169833      6.539860      7.250890
  Au      6.822178      5.392522      5.809814
  Au      7.490744      7.870114      4.990681
  Au      9.746497      8.961262      6.154687
  Au      4.800561      7.457873      5.688394
  Au      4.687620      5.589967      7.809603
  Au      7.338623      4.813491      8.474548
  Fe      6.674704      7.372315      7.676197
16
Coordinates from ORCA-job pbe E -3300.920115384999
  Au      8.157865     10.841780      7.721787
  Au      7.827877     10.618333      4.939972
  Au      6.861388      9.280918      9.541278
  Au      9.672196      8.858222      8.919307
  Au      4.274280      8.447624      8.348036
  Au      5.794463      9.895190      6.658896
  Au      8.360260      6.796268     10.065540
  Au      5.617094      6.860325     10.182117
  Au      9.175429      6.524834      7.245771
  Au      6.827936      5.404265      5.811589
  Au      7.483410      7.881289      4.980892
  Au      9.735439      8.958665      6.156525
  Au      4.799440      7.448073      5.699449
  Au      4.701200      5.593287      7.821137
  Au      7.341486      4.805777      8.470513
  Fe      6.699104      7.389959      7.679157
16
Coordinates from ORCA-job pbe E -3300.920265636296
  Au      8.156013     10.838497      7.724080
  Au      7.837368     10.629576      4.936578
  Au      6.849547      9.286475      9.543076
  Au      9.664575      8.854324      8.917113
  Au      4.283048      8.448031      8.348109
  Au      5.796773      9.891756      6.642282
  Au      8.356091      6.792257     10.065393
  Au      5.612018      6.857115     10.188178
  Au      9.176185      6.516097      7.235611
  Au      6.831262      5.411118      5.817159
  Au      7.471397      7.892967      4.977604
  Au      9.732789      8.954645      6.159387
  Au      4.796183      7.438390      5.705244
  Au      4.705907      5.593374      7.827426
  Au      7.341384      4.797412      8.471753
  Fe      6.718329      7.402778      7.682973
16
Coordinates from ORCA-job pbe E -3300.920334228360
  Au      8.150673     10.841292      7.725549
  Au      7.848614     10.638399      4.935329
  Au      6.840147      9.288537      9.542664
  Au      9.659475      8.852961      8.915477
  Au      4.289770      8.446526      8.348835
  Au      5.799277      9.882593      6.633791
  Au      8.355530      6.792381     10.066265
  Au      5.612290      6.852473     10.190796
  Au      9.174430      6.509474      7.228982
  Au      6.834804      5.412869      5.821924
  Au      7.463905      7.900402      4.979628
  Au      9.733638      8.950913      6.154727
  Au      4.790207      7.438832      5.709536
  Au      4.706415      5.593940      7.825782
  Au      7.339556      4.794508      8.476121
  Fe      6.730136      7.408713      7.686560
16
Coordinates from ORCA-job pbe E -3300.920343616957
  Au      8.146380     10.846769      7.726962
  Au      7.858534     10.646789      4.938861
  Au      6.833916      9.290171      9.544014
  Au      9.656687      8.853395      8.909243
  Au      4.291170      8.445731      8.354684
  Au      5.803372      9.879498      6.629588
  Au      8.359004      6.791554     10.065382
  Au      5.613904      6.846559     10.191107
  Au      9.172369      6.506100      7.224169
  Au      6.833433      5.415533      5.827032
  Au      7.452712      7.901974      4.986792
  Au      9.734895      8.946402      6.150165
  Au      4.795224      7.427824      5.700140
  Au      4.704509      5.597661      7.821780
  Au      7.336317      4.796211      8.481449
  Fe      6.736443      7.412639      7.690599
16
Coordinates from ORCA-job pbe E -3300.920386605784
  Au      8.145280     10.847370      7.728144
  Au      7.861393     10.645038      4.940860
  Au      6.835278      9.290436      9.544263
  Au      9.655351      8.856563      8.906012
  Au      4.290008      8.442516      8.354095
  Au      5.802086      9.875688      6.631163
  Au      8.360180      6.794324     10.066811
  Au      5.616213      6.845055     10.188417
  Au      9.174062      6.506259      7.225605
  Au      6.833851      5.410675      5.827029
  Au      7.455436      7.901343      4.986652
  Au      9.736795      8.945579      6.149038
  Au      4.788277      7.436068      5.703476
  Au      4.704594      5.598596      7.817591
  Au      7.334470      4.798371      8.482794
  Fe      6.735596      7.410930      7.690016
16
Coordinates from ORCA-job pbe E -3300.920408161687
  Au      8.141405     10.848082      7.729771
  Au      7.861587     10.642520      4.943104
  Au      6.836554      9.291042      9.548139
  Au      9.652070      8.856265      8.903678
  Au      4.289344      8.442974      8.352482
  Au      5.800339      9.874934      6.633133
  Au      8.362733      6.796298     10.067963
  Au      5.618823      6.843922     10.186233
  Au      9.177089      6.504021      7.227913
  Au      6.833692      5.409959      5.825322
  Au      7.456682      7.899904      4.986131
  Au      9.736896      8.942404      6.146315
  Au      4.786170      7.438820      5.702711
  Au      4.704959      5.600711      7.814495
  Au      7.333387      4.801231      8.484348
  Fe      6.737138      7.411725      7.690228
16
Coordinates from ORCA-job pbe E -3300.920430280010
  Au      8.136555     10.852421      7.732226
  Au      7.863021     10.639404      4.948116
  Au      6.837759      9.290432      9.553369
  Au      9.647479      8.858275      8.896338
  Au      4.288080      8.440075      8.354631
  Au      5.799341      9.874868      6.635304
  Au      8.368595      6.799608     10.070490
  Au      5.623795      6.840393     10.180694
  Au      9.180026      6.501542      7.231606
  Au      6.833019      5.406839      5.826930
  Au      7.457170      7.897706      4.987078
  Au      9.739854      8.937467      6.141445
  Au      4.784859      7.443353      5.697995
  Au      4.702021      5.603478      7.807149
  Au      7.329806      4.807636      8.487575
  Fe      6.737487      7.411313      7.691021
16
Coordinates from ORCA-job pbe E -3300.920443356284
  Au      8.131737     10.853635      7.734293
  Au      7.864792     10.638708      4.951173
  Au      6.836263      9.291393      9.558862
  Au      9.641587      8.858129      8.890276
  Au      4.289869      8.441286      8.353481
  Au      5.797391      9.875937      6.634070
  Au      8.371353      6.799325     10.073317
  Au      5.626437      6.837205     10.178753
  Au      9.183056      6.496804      7.232623
  Au      6.833598      5.409708      5.826906
  Au      7.455179      7.897266      4.985426
  Au      9.739851      8.932428      6.138468
  Au      4.785528      7.442231      5.697172
  Au      4.701605      5.605488      7.804319
  Au      7.327816      4.810409      8.490420
  Fe      6.742808      7.414858      7.692408
16
Coordinates from ORCA-job pbe E -3300.920456447604
  Au      8.128357     10.855826      7.736187
  Au      7.864911     10.638162      4.952879
  Au      6.835358      9.291170      9.561742
  Au      9.636779      8.856592      8.886648
  Au      4.291905      8.441261      8.355057
  Au      5.795420      9.878941      6.632409
  Au      8.374796      6.798814     10.076816
  Au      5.628174      6.834689     10.176635
  Au      9.183961      6.493941      7.233554
  Au      6.834530      5.411048      5.829400
  Au      7.454265      7.897963      4.982265
  Au      9.740979      8.928745      6.135208
  Au      4.788698      7.441770      5.695304
  Au      4.699513      5.605665      7.802765
  Au      7.325849      4.813011      8.492295
  Fe      6.745374      7.417212      7.692803
16
Coordinates from ORCA-job pbe E -3300.920470753044
  Au      8.125142     10.857052      7.736795
  Au      7.866109     10.638821      4.954321
  Au      6.833011      9.290623      9.563869
  Au      9.630739      8.854073      8.882775
  Au      4.295290      8.441503      8.356746
  Au      5.792558      9.882928      6.628457
  Au      8.376741      6.796121     10.082210
  Au      5.629947      6.832087     10.175199
  Au      9.184517      6.491250      7.233388
  Au      6.837396      5.413380      5.831927
  Au      7.452955      7.898800      4.976976
  Au      9.741360      8.925152      6.132966
  Au      4.791392      7.442078      5.696886
  Au      4.698308      5.605117      7.802429
  Au      7.324154      4.814748      8.494694
  Fe      6.749249      7.421079      7.692331
16
Coordinates from ORCA-job pbe E -3300.920485161463
  Au      8.122530     10.856793      7.737490
  Au      7.867071     10.639413      4.955096
  Au      6.831851      9.290198      9.564763
  Au      9.624351      8.850402      8.880395
  Au      4.298451      8.442501      8.358694
  Au      5.788579      9.886561      6.625260
  Au      8.378672      6.792277     10.088881
  Au      5.631659      6.829910     10.174294
  Au      9.184146      6.489033      7.233165
  Au      6.840762      5.414254      5.835246
  Au      7.452368      7.900268      4.970292
  Au      9.740694      8.923218      6.130607
  Au      4.794631      7.442264      5.698417
  Au      4.698043      5.605232      7.802323
  Au      7.322786      4.816766      8.496827
  Fe      6.752274      7.425721      7.690216
16
Coordinates from ORCA-job pbe E -3300.920501378949
  Au      8.119207     10.855961      7.736632
  Au      7.867544     10.639597      4.955511
  Au      6.830327      9.289099      9.566289
  Au      9.616602      8.844719      8.878602
  Au      4.301534      8.442772      8.361454
  Au      5.784444      9.890479      6.621371
  Au      8.381085      6.787620     10.098192
  Au      5.634475      6.827866     10.172552
  Au      9.184743      6.487645      7.233485
  Au      6.845220      5.414763      5.837056
  Au      7.451725      7.899830      4.963518
  Au      9.739354      8.920709      6.129058
  Au      4.795375      7.445520      5.701028
  Au      4.699489      5.606655      7.801222
  Au      7.321838      4.819410      8.500136
  Fe      6.755907      7.432167      7.685861
16
Coordinates from ORCA-job pbe E -3300.920521271289
  Au      8.117234     10.853751      7.736208
  Au      7.867118     10.639137      4.955269
  Au      6.830520      9.288293      9.568059
  Au      9.609484      8.839041      8.877401
  Au      4.302787      8.443127      8.363906
  Au      5.780147      9.892623      6.620262
  Au      8.384347      6.782229     10.108495
  Au      5.638715      6.826000     10.171039
  Au      9.184606      6.486206      7.234635
  Au      6.847931      5.413148      5.839862
  Au      7.451401      7.899593      4.958304
  Au      9.736861      8.920095      6.127687
  Au      4.796129      7.447404      5.699571
  Au      4.702017      5.610312      7.798555
  Au      7.321149      4.823849      8.503316
  Fe      6.758423      7.440001      7.679396
16
Coordinates from ORCA-job pbe E -3300.920545888145
  Au      8.116532     10.850286      7.734669
  Au      7.864419     10.637991      4.953532
  Au      6.831107      9.287297      9.569887
  Au      9.604371      8.832862      8.878701
  Au      4.302495      8.441371      8.365621
  Au      5.777988      9.893169      6.621044
  Au      8.388596      6.777509     10.119500
  Au      5.643778      6.825174     10.168963
  Au      9.184928      6.485511      7.236779
  Au      6.848171      5.411328      5.840314
  Au      7.451283      7.897021      4.956783
  Au      9.733741      8.920701      6.128592
  Au      4.793208      7.450375      5.695696
  Au      4.706232      5.616047      7.795082
  Au      7.321721      4.828837      8.506794
  Fe      6.760298      7.449333      7.670009
16
Coordinates from ORCA-job pbe E -3300.920558991797
  Au      8.118021     10.848150      7.734086
  Au      7.861155     10.636190      4.952124
  Au      6.832228      9.286636      9.571693
  Au      9.604587      8.830918      8.880173
  Au      4.300388      8.440113      8.364249
  Au      5.777717      9.891850      6.624486
  Au      8.392325      6.776353     10.124731
  Au      5.647959      6.824708     10.167744
  Au      9.184796      6.485339      7.238664
  Au      6.845722      5.410661      5.840019
  Au      7.451558      7.894957      4.959501
  Au      9.731996      8.921411      6.130434
  Au      4.790518      7.450626      5.689590
  Au      4.708004      5.619176      7.792489
  Au      7.321903      4.832826      8.508301
  Fe      6.759992      7.454896      7.663682
16
Coordinates from ORCA-job pbe E -3300.920563274882
  Au      8.118209     10.847655      7.734547
  Au      7.858770     10.634836      4.952179
  Au      6.833203      9.285440      9.572647
  Au      9.605441      8.831283      8.880603
  Au      4.299484      8.436947      8.364204
  Au      5.777889      9.892200      6.626289
  Au      8.395611      6.777061     10.127476
  Au      5.650515      6.824154     10.164928
  Au      9.184993      6.484677      7.240687
  Au      6.843132      5.409827      5.840632
  Au      7.452172      7.893013      4.960280
  Au      9.732307      8.921405      6.131134
  Au      4.789660      7.452025      5.686634
  Au      4.706860      5.620536      7.790314
  Au      7.321268      4.836175      8.509679
  Fe      6.759354      7.457575      7.659733
16
Coordinates from ORCA-job pbe E -3300.920567642282
  Au      8.119351     10.847606      7.735342
  Au      7.857475     10.633835      4.952374
  Au      6.833773      9.284592      9.572647
  Au      9.609870      8.834154      8.881855
  Au      4.298659      8.436619      8.362327
  Au      5.778738      9.891419      6.628390
  Au      8.397526      6.779854     10.125936
  Au      5.651459      6.822886     10.163296
  Au      9.184691      6.484901      7.241305
  Au      6.841308      5.410814      5.839636
  Au      7.452862      7.891902      4.962488
  Au      9.732958      8.921179      6.132518
  Au      4.788188      7.450972      5.685159
  Au      4.704121      5.618763      7.790026
  Au      7.319897      4.837535      8.510449
  Fe      6.757994      7.457782      7.658218
16
Coordinates from ORCA-job pbe E -3300.920572699914
  Au      8.119900     10.847634      7.736094
  Au      7.856808     10.632663      4.953030
  Au      6.834575      9.282694      9.573116
  Au      9.614019      8.836895      8.882661
  Au      4.297597      8.434537      8.361850
  Au      5.778018      9.892175      6.629734
  Au      8.400163      6.782540     10.125228
  Au      5.653389      6.820599     10.160567
  Au      9.183929      6.485217      7.242564
  Au      6.839081      5.410069      5.841576
  Au      7.453996      7.891281      4.962327
  Au      9.733258      8.920250      6.133307
  Au      4.788889      7.451415      5.684257
  Au      4.701028      5.617038      7.788535
  Au      7.317392      4.840516      8.511575
  Fe      6.756827      7.459287      7.655546
16
Coordinates from ORCA-job pbe E -3300.920578955423
  Au      8.120307     10.846515      7.736916
  Au      7.856752     10.631984      4.954036
  Au      6.836031      9.280448      9.571425
  Au      9.622321      8.842658      8.885388
  Au      4.297150      8.433390      8.362044
  Au      5.777893      9.893060      6.630830
  Au      8.401073      6.787175     10.120333
  Au      5.653251      6.817599     10.157890
  Au      9.182534      6.486145      7.243906
  Au      6.837843      5.409157      5.842166
  Au      7.455400      7.889871      4.961429
  Au      9.733035      8.920415      6.135014
  Au      4.789634      7.451838      5.685934
  Au      4.696395      5.613979      7.788020
  Au      7.314341      4.841722      8.512998
  Fe      6.754909      7.458853      7.653636
16
Coordinates from ORCA-job pbe E -3300.920583202200
  Au      8.120543     10.844816      7.736585
  Au      7.856360     10.630922      4.953945
  Au      6.837349      9.278761      9.570799
  Au      9.628529      8.846007      8.887923
  Au      4.296792      8.433089      8.363185
  Au      5.776594      9.894026      6.631644
  Au      8.400787      6.790033     10.116498
  Au      5.652728      6.815601     10.157194
  Au      9.181545      6.487419      7.245477
  Au      6.838184      5.408042      5.842675
  Au      7.456375      7.888699      4.960160
  Au      9.731285      8.920286      6.136590
  Au      4.790417      7.452919      5.686664
  Au      4.695157      5.613535      7.786745
  Au      7.312344      4.841613      8.513598
  Fe      6.753878      7.459044      7.652284
16
Coordinates from ORCA-job pbe E -3300.920587917565
  Au      8.120110     10.841682      7.736173
  Au      7.854458     10.629274      4.953741
  Au      6.839460      9.276565      9.570712
  Au      9.636107      8.849991      8.891141
  Au      4.296944      8.433033      8.365014
  Au      5.774448      9.895473      6.632898
  Au      8.400266      6.793332     10.111868
  Au      5.652387      6.812971     10.156958
  Au      9.180713      6.488138      7.248597
  Au      6.839281      5.406317      5.843177
  Au      7.457073      7.886375      4.957874
  Au      9.728245      8.920209      6.138724
  Au      4.791142      7.455113      5.685611
  Au      4.694976      5.615359      7.784051
  Au      7.309876      4.840979      8.515085
  Fe      6.753382      7.460000      7.650343
16
Coordinates from ORCA-job pbe E -3300.920590369848
  Au      8.119487     10.839604      7.735927
  Au      7.852572     10.627707      4.953259
  Au      6.840356      9.275381      9.571955
  Au      9.639441      8.851548      8.892514
  Au      4.297603      8.432860      8.366342
  Au      5.772399      9.896614      6.633429
  Au      8.400316      6.794871     10.110113
  Au      5.652444      6.811227     10.157355
  Au      9.180764      6.487846      7.251040
  Au      6.840491      5.406073      5.843616
  Au      7.457052      7.884863      4.956141
  Au      9.725962      8.919178      6.139760
  Au      4.791132      7.456976      5.683430
  Au      4.696068      5.618252      7.781471
  Au      7.308772      4.840350      8.516373
  Fe      6.754010      7.461461      7.649240
16
Coordinates from ORCA-job pbe E -3300.920590907811
  Au      8.118760     10.838691      7.736119
  Au      7.851324     10.627287      4.953299
  Au      6.840346      9.275062      9.573124
  Au      9.639575      8.851583      8.892465
  Au      4.298449      8.433006      8.366432
  Au      5.771449      9.897145      6.633325
  Au      8.400680      6.795040     10.110288
  Au      5.652916      6.810588     10.157843
  Au      9.181226      6.486775      7.252060
  Au      6.841150      5.406456      5.844189
  Au      7.456501      7.884393      4.955015
  Au      9.725128      8.918337      6.139888
  Au      4.790934      7.457767      5.681456
  Au      4.696970      5.620112      7.780326
  Au      7.308500      4.840035      8.517262
  Fe      6.754960      7.462535      7.648874
16
Coordinates from ORCA-job pbe E -3300.920591225420
  Au      8.118630     10.838579      7.736253
  Au      7.851338     10.627280      4.953311
  Au      6.839951      9.275117      9.573605
  Au      9.639065      8.851344      8.892199
  Au      4.298777      8.432915      8.366348
  Au      5.771216      9.897232      6.632977
  Au      8.400951      6.794920     10.110746
  Au      5.653075      6.810448     10.157927
  Au      9.181473      6.486310      7.252097
  Au      6.841301      5.407094      5.844355
  Au      7.456196      7.884609      4.954723
  Au      9.725030      8.917772      6.139746
  Au      4.790711      7.457790      5.681036
  Au      4.697130      5.620433      7.780235
  Au      7.308716      4.840065      8.517576
  Fe      6.755309      7.462902      7.648832
