11
Coordinates from ORCA-job pbe E -2509.013047829292
  Au      6.804997      6.471111      5.217153
  Au      5.443335      4.101959      6.451081
  Au      4.239397      5.712584      4.617209
  Au      4.445836      6.868350      7.128124
  Au      7.086373      3.525975      8.486666
  Au      8.062931      7.944645     10.571248
  Au     10.315692      7.712440      8.936977
  Au      8.719582      5.493288      9.278902
  Au      5.764709      7.725119      9.244938
  Au      8.800435      7.117712      6.787892
  Mn      6.678207      5.944925      7.815298
11
Coordinates from ORCA-job pbe E -2509.016357546010
  Au      6.800647      6.473437      5.194500
  Au      5.434366      4.095383      6.430527
  Au      4.211419      5.670134      4.607895
  Au      4.390292      6.882142      7.094202
  Au      7.104173      3.492987      8.490882
  Au      8.097277      7.925044     10.581387
  Au     10.326192      7.697020      8.987745
  Au      8.747983      5.512875      9.293068
  Au      5.764985      7.776772      9.270248
  Au      8.808929      7.133733      6.776405
  Mn      6.675231      5.958579      7.808628
11
Coordinates from ORCA-job pbe E -2509.017979048904
  Au      6.809114      6.468310      5.196725
  Au      5.452379      4.090182      6.427096
  Au      4.222697      5.679282      4.631724
  Au      4.365842      6.911481      7.112274
  Au      7.125423      3.464652      8.483881
  Au      8.053371      7.927191     10.561793
  Au     10.338649      7.684637      8.969156
  Au      8.756444      5.491182      9.301793
  Au      5.736061      7.806647      9.274226
  Au      8.822163      7.132470      6.766196
  Mn      6.679352      5.962073      7.810623
11
Coordinates from ORCA-job pbe E -2509.019765542789
  Au      6.827502      6.463633      5.206221
  Au      5.505261      4.082837      6.436035
  Au      4.240726      5.684953      4.687623
  Au      4.328467      6.968208      7.149530
  Au      7.174892      3.443618      8.466858
  Au      8.021240      7.898253     10.496195
  Au     10.318556      7.631868      8.965559
  Au      8.766528      5.468632      9.306955
  Au      5.662077      7.863459      9.252246
  Au      8.832642      7.131969      6.755782
  Mn      6.683604      5.980678      7.812482
11
Coordinates from ORCA-job pbe E -2509.020500026455
  Au      6.829882      6.453112      5.203665
  Au      5.546336      4.082484      6.444145
  Au      4.224809      5.683573      4.753477
  Au      4.296776      6.998074      7.149247
  Au      7.218613      3.440699      8.443864
  Au      7.984133      7.869413     10.450808
  Au     10.332082      7.623328      9.003478
  Au      8.763263      5.425903      9.303096
  Au      5.624648      7.918905      9.235618
  Au      8.854554      7.121756      6.739993
  Mn      6.686399      6.000862      7.808097
11
Coordinates from ORCA-job pbe E -2509.021004713671
  Au      6.837932      6.463489      5.221313
  Au      5.579331      4.077673      6.442206
  Au      4.219436      5.693570      4.760139
  Au      4.272161      7.005974      7.149713
  Au      7.237916      3.422967      8.430761
  Au      7.974968      7.879822     10.388237
  Au     10.327157      7.602458      8.995072
  Au      8.767863      5.411399      9.310005
  Au      5.598737      7.943489      9.252975
  Au      8.864542      7.106337      6.760153
  Mn      6.681451      6.010930      7.824913
11
Coordinates from ORCA-job pbe E -2509.021975053919
  Au      6.834432      6.478594      5.253979
  Au      5.621420      4.084720      6.414564
  Au      4.225459      5.687461      4.766366
  Au      4.235901      7.013580      7.154090
  Au      7.258376      3.394763      8.417285
  Au      7.980575      7.900823     10.305362
  Au     10.356511      7.570149      8.995751
  Au      8.785445      5.390755      9.312152
  Au      5.534849      7.982368      9.267919
  Au      8.865762      7.083803      6.790320
  Mn      6.662766      6.031091      7.857699
11
Coordinates from ORCA-job pbe E -2509.023481356841
  Au      6.816779      6.487781      5.283469
  Au      5.655551      4.098170      6.389744
  Au      4.220770      5.677612      4.764888
  Au      4.218542      7.016220      7.162471
  Au      7.276931      3.380627      8.413691
  Au      7.959913      7.896862     10.218773
  Au     10.394898      7.544873      9.021157
  Au      8.817279      5.382789      9.291068
  Au      5.489511      8.020660      9.273016
  Au      8.866826      7.054732      6.820679
  Mn      6.644495      6.057782      7.896531
11
Coordinates from ORCA-job pbe E -2509.025246765914
  Au      6.803209      6.501360      5.319837
  Au      5.678603      4.114004      6.382025
  Au      4.221868      5.668682      4.757777
  Au      4.219260      7.004820      7.160952
  Au      7.285626      3.386929      8.412206
  Au      7.937140      7.885185     10.136829
  Au     10.443567      7.522374      9.041150
  Au      8.844971      5.375559      9.255836
  Au      5.447255      8.042601      9.274680
  Au      8.858491      7.031045      6.852145
  Mn      6.621505      6.085549      7.942049
11
Coordinates from ORCA-job pbe E -2509.026774705047
  Au      6.790293      6.515885      5.348672
  Au      5.694526      4.128119      6.390728
  Au      4.224755      5.657198      4.756595
  Au      4.228091      6.996850      7.155572
  Au      7.287037      3.396278      8.406062
  Au      7.915005      7.870251     10.044976
  Au     10.480755      7.503396      9.064997
  Au      8.872229      5.359531      9.218451
  Au      5.406268      8.055804      9.277314
  Au      8.861343      7.023961      6.883964
  Mn      6.601193      6.110834      7.988154
11
Coordinates from ORCA-job pbe E -2509.028008988679
  Au      6.798830      6.534602      5.384610
  Au      5.704642      4.139510      6.402751
  Au      4.233901      5.653019      4.753637
  Au      4.229412      6.991964      7.149831
  Au      7.291660      3.394523      8.406801
  Au      7.895326      7.861695      9.946953
  Au     10.504636      7.482642      9.085362
  Au      8.901644      5.334736      9.189057
  Au      5.365447      8.069941      9.287894
  Au      8.851721      7.027344      6.894641
  Mn      6.584277      6.128132      8.033951
11
Coordinates from ORCA-job pbe E -2509.029104104417
  Au      6.795710      6.548077      5.397806
  Au      5.700411      4.147257      6.428817
  Au      4.235357      5.649395      4.759129
  Au      4.242277      6.987705      7.133309
  Au      7.279043      3.391845      8.414026
  Au      7.879462      7.851802      9.860636
  Au     10.519798      7.470908      9.115321
  Au      8.940094      5.298913      9.155099
  Au      5.325560      8.072211      9.292880
  Au      8.866246      7.063574      6.906664
  Mn      6.577538      6.136419      8.071801
11
Coordinates from ORCA-job pbe E -2509.029830638047
  Au      6.802662      6.561269      5.415974
  Au      5.698546      4.157485      6.436209
  Au      4.243770      5.639448      4.757780
  Au      4.238491      6.992797      7.127587
  Au      7.271859      3.370921      8.428779
  Au      7.874654      7.860931      9.782787
  Au     10.510544      7.456613      9.138803
  Au      8.979056      5.256929      9.127547
  Au      5.296081      8.088570      9.307709
  Au      8.866683      7.099660      6.912452
  Mn      6.579147      6.133484      8.099861
11
Coordinates from ORCA-job pbe E -2509.029813128117
  Au      6.807237      6.567846      5.404505
  Au      5.649071      4.152109      6.474737
  Au      4.243947      5.646228      4.737913
  Au      4.281260      6.965208      7.107228
  Au      7.229702      3.388376      8.444258
  Au      7.892287      7.902089      9.808888
  Au     10.501956      7.462078      9.152979
  Au      8.984634      5.246466      9.105791
  Au      5.322079      8.031270      9.304801
  Au      8.858574      7.152029      6.900283
  Mn      6.590747      6.104409      8.094105
11
Coordinates from ORCA-job pbe E -2509.030324677364
  Au      6.792146      6.577276      5.414283
  Au      5.678502      4.149155      6.457261
  Au      4.233593      5.631376      4.744219
  Au      4.245090      6.972475      7.115296
  Au      7.250994      3.370315      8.434121
  Au      7.892286      7.935842      9.771844
  Au     10.523215      7.423357      9.175031
  Au      9.000702      5.230895      9.096175
  Au      5.283242      8.068280      9.305919
  Au      8.867513      7.143792      6.926578
  Mn      6.594212      6.115344      8.094760
11
Coordinates from ORCA-job pbe E -2509.030602509645
  Au      6.791727      6.585883      5.438513
  Au      5.671425      4.165348      6.457699
  Au      4.254686      5.615995      4.769530
  Au      4.241337      6.982635      7.113653
  Au      7.252437      3.360366      8.442801
  Au      7.874714      7.909899      9.720616
  Au     10.495741      7.425396      9.195359
  Au      9.032530      5.205635      9.051953
  Au      5.274401      8.097399      9.299274
  Au      8.866560      7.149887      6.943940
  Mn      6.605937      6.119664      8.102148
11
Coordinates from ORCA-job pbe E -2509.031030648764
  Au      6.792734      6.594089      5.448959
  Au      5.666850      4.154200      6.473016
  Au      4.239318      5.621604      4.758163
  Au      4.248084      6.980712      7.116273
  Au      7.241919      3.353580      8.448054
  Au      7.873889      7.929823      9.697169
  Au     10.496688      7.426119      9.226104
  Au      9.054566      5.185900      9.025255
  Au      5.268356      8.096468      9.287326
  Au      8.861688      7.165053      6.949390
  Mn      6.617403      6.110560      8.105778
11
Coordinates from ORCA-job pbe E -2509.031343337981
  Au      6.784172      6.607986      5.460280
  Au      5.658181      4.138271      6.483996
  Au      4.226736      5.621479      4.771181
  Au      4.256113      6.965574      7.105054
  Au      7.232977      3.351869      8.444662
  Au      7.877615      7.991216      9.683647
  Au     10.492687      7.397195      9.263818
  Au      9.070505      5.161891      8.996087
  Au      5.270781      8.092713      9.269284
  Au      8.852175      7.195356      6.962921
  Mn      6.639553      6.094559      8.094559
11
Coordinates from ORCA-job pbe E -2509.031477413405
  Au      6.775543      6.623695      5.475492
  Au      5.646758      4.130227      6.492448
  Au      4.224359      5.599393      4.771610
  Au      4.262518      6.971197      7.100342
  Au      7.224793      3.350129      8.448140
  Au      7.881488      8.002583      9.663399
  Au     10.478038      7.394535      9.296798
  Au      9.093636      5.131136      8.955499
  Au      5.273289      8.106985      9.258340
  Au      8.844836      7.218924      6.979404
  Mn      6.656235      6.089303      8.094016
11
Coordinates from ORCA-job pbe E -2509.031538027615
  Au      6.771727      6.626065      5.480164
  Au      5.646482      4.126548      6.489655
  Au      4.226882      5.600319      4.775137
  Au      4.267087      6.973706      7.093726
  Au      7.222464      3.346916      8.452313
  Au      7.875815      7.996087      9.664396
  Au     10.478343      7.396195      9.293814
  Au      9.101447      5.129434      8.951378
  Au      5.272347      8.112937      9.256422
  Au      8.841094      7.220611      6.980555
  Mn      6.657807      6.089288      8.097928
11
Coordinates from ORCA-job pbe E -2509.031593890158
  Au      6.764251      6.630646      5.482778
  Au      5.644306      4.120183      6.485162
  Au      4.233426      5.596540      4.770864
  Au      4.277257      6.977633      7.085994
  Au      7.221975      3.349787      8.459063
  Au      7.874093      7.991499      9.674225
  Au     10.479641      7.392885      9.278953
  Au      9.101979      5.126252      8.954680
  Au      5.274072      8.115070      9.257430
  Au      8.832441      7.229579      6.981712
  Mn      6.658053      6.088035      8.104627
11
Coordinates from ORCA-job pbe E -2509.031630544961
  Au      6.754688      6.637504      5.488633
  Au      5.649190      4.110591      6.480329
  Au      4.233727      5.589868      4.773171
  Au      4.288352      6.985695      7.078094
  Au      7.215842      3.346967      8.458386
  Au      7.875718      7.995070      9.677129
  Au     10.477820      7.389578      9.273359
  Au      9.108400      5.119254      8.954632
  Au      5.271922      8.120264      9.253771
  Au      8.823953      7.238294      6.986379
  Mn      6.661883      6.085024      8.111603
11
Coordinates from ORCA-job pbe E -2509.031651812013
  Au      6.752724      6.636294      5.488113
  Au      5.655509      4.107561      6.472724
  Au      4.226979      5.589777      4.772930
  Au      4.290773      6.991492      7.077083
  Au      7.219386      3.345543      8.458901
  Au      7.877047      7.994226      9.686489
  Au     10.475065      7.391788      9.267892
  Au      9.105778      5.118576      8.962015
  Au      5.275234      8.124002      9.250756
  Au      8.819610      7.236576      6.985344
  Mn      6.663389      6.082272      8.113241
11
Coordinates from ORCA-job pbe E -2509.031670712378
  Au      6.750394      6.637035      5.487895
  Au      5.662928      4.108312      6.470654
  Au      4.219571      5.585867      4.773474
  Au      4.292372      6.993729      7.074729
  Au      7.222855      3.346098      8.454984
  Au      7.878958      7.995784      9.683441
  Au     10.475544      7.386510      9.269353
  Au      9.103551      5.115790      8.966801
  Au      5.275334      8.127059      9.248637
  Au      8.816828      7.240529      6.986505
  Mn      6.663159      6.081394      8.119015
11
Coordinates from ORCA-job pbe E -2509.031687565655
  Au      6.747643      6.634628      5.487190
  Au      5.670009      4.112212      6.464967
  Au      4.214468      5.583247      4.773817
  Au      4.292564      6.996884      7.074138
  Au      7.224143      3.343853      8.449241
  Au      7.881053      7.995326      9.687129
  Au     10.475367      7.390635      9.268361
  Au      9.099465      5.118506      8.974940
  Au      5.280663      8.129216      9.247794
  Au      8.814811      7.234778      6.984683
  Mn      6.661308      6.078822      8.123228
11
Coordinates from ORCA-job pbe E -2509.031702747724
  Au      6.743336      6.633944      5.489985
  Au      5.677347      4.115140      6.459267
  Au      4.209563      5.584865      4.777684
  Au      4.290999      6.997768      7.073318
  Au      7.229429      3.339995      8.444957
  Au      7.881997      7.998799      9.681073
  Au     10.475056      7.389504      9.272965
  Au      9.098625      5.118673      8.978401
  Au      5.282720      8.134020      9.242657
  Au      8.812039      7.230328      6.986164
  Mn      6.660383      6.075071      8.129016
11
Coordinates from ORCA-job pbe E -2509.031712182109
  Au      6.741015      6.637274      5.492506
  Au      5.675569      4.116117      6.460011
  Au      4.210735      5.582890      4.778093
  Au      4.289820      6.996375      7.073487
  Au      7.230824      3.339131      8.441704
  Au      7.881739      8.003697      9.676600
  Au     10.476578      7.386800      9.277014
  Au      9.098998      5.118897      8.976803
  Au      5.284022      8.134919      9.240041
  Au      8.812176      7.229751      6.987973
  Mn      6.660021      6.072257      8.131255
11
Coordinates from ORCA-job pbe E -2509.031720734727
  Au      6.740129      6.641237      5.495908
  Au      5.669027      4.115983      6.463468
  Au      4.215049      5.584485      4.775465
  Au      4.287942      6.992346      7.073390
  Au      7.231742      3.338696      8.440849
  Au      7.883537      8.007889      9.671809
  Au     10.478457      7.385919      9.279448
  Au      9.099853      5.119631      8.973873
  Au      5.284214      8.133869      9.237763
  Au      8.812637      7.230289      6.989800
  Mn      6.658909      6.067764      8.133715
11
Coordinates from ORCA-job pbe E -2509.031725493743
  Au      6.740861      6.643503      5.498276
  Au      5.664065      4.114931      6.466380
  Au      4.216794      5.585060      4.773804
  Au      4.286030      6.991438      7.074259
  Au      7.233344      3.338087      8.439129
  Au      7.882961      8.009278      9.670521
  Au     10.479399      7.385614      9.279902
  Au      9.101056      5.119761      8.972861
  Au      5.283785      8.134809      9.235033
  Au      8.814037      7.231060      6.990907
  Mn      6.659164      6.064568      8.134415
11
Coordinates from ORCA-job pbe E -2509.031728355144
  Au      6.741410      6.643584      5.500313
  Au      5.660252      4.114594      6.468114
  Au      4.217176      5.586237      4.771597
  Au      4.285783      6.990913      7.073483
  Au      7.234664      3.337805      8.437767
  Au      7.883287      8.008340      9.671066
  Au     10.479699      7.387302      9.278225
  Au      9.101876      5.119749      8.973985
  Au      5.284005      8.135758      9.233423
  Au      8.814069      7.231974      6.991801
  Mn      6.659273      6.061850      8.135713
11
Coordinates from ORCA-job pbe E -2509.031730761821
  Au      6.742368      6.642007      5.501552
  Au      5.656479      4.114750      6.470213
  Au      4.216404      5.587319      4.770495
  Au      4.285658      6.990866      7.072834
  Au      7.236777      3.337835      8.434808
  Au      7.882955      8.006531      9.672162
  Au     10.479608      7.389096      9.277000
  Au      9.102858      5.119713      8.976181
  Au      5.284011      8.137297      9.231657
  Au      8.814437      7.232677      6.992700
  Mn      6.659940      6.060015      8.135884
11
Coordinates from ORCA-job pbe E -2509.031733237212
  Au      6.742898      6.639288      5.502623
  Au      5.652444      4.115699      6.471685
  Au      4.214688      5.588502      4.769493
  Au      4.286118      6.991023      7.071991
  Au      7.240417      3.337836      8.429853
  Au      7.882617      8.004533      9.672820
  Au     10.479777      7.391284      9.275884
  Au      9.103723      5.120180      8.980816
  Au      5.284273      8.139338      9.229997
  Au      8.814181      7.232062      6.993782
  Mn      6.660358      6.058363      8.136544
11
Coordinates from ORCA-job pbe E -2509.031735900653
  Au      6.743344      6.635985      5.502837
  Au      5.646262      4.116368      6.474540
  Au      4.212557      5.589946      4.769038
  Au      4.287326      6.990722      7.071115
  Au      7.245060      3.338483      8.422888
  Au      7.882365      8.003281      9.672951
  Au     10.479657      7.393618      9.276846
  Au      9.105040      5.120610      8.985832
  Au      5.284532      8.141077      9.228233
  Au      8.814070      7.230967      6.994970
  Mn      6.661282      6.057049      8.136238
11
Coordinates from ORCA-job pbe E -2509.031738734300
  Au      6.743573      6.632384      5.502380
  Au      5.639621      4.117117      6.476488
  Au      4.210007      5.591901      4.768730
  Au      4.288967      6.990747      7.070755
  Au      7.251578      3.338860      8.413915
  Au      7.882161      8.003223      9.671494
  Au     10.479838      7.396174      9.278462
  Au      9.105812      5.121938      8.993529
  Au      5.284608      8.142527      9.227535
  Au      8.813815      7.227132      6.995683
  Mn      6.661514      6.056104      8.136516
11
Coordinates from ORCA-job pbe E -2509.031741116024
  Au      6.743776      6.630034      5.501457
  Au      5.632655      4.116498      6.479094
  Au      4.208136      5.593929      4.768953
  Au      4.291090      6.990785      7.070521
  Au      7.257257      3.339432      8.405659
  Au      7.882171      8.005166      9.668843
  Au     10.479331      7.398311      9.281720
  Au      9.106573      5.122640      8.999233
  Au      5.284229      8.142702      9.227741
  Au      8.814267      7.223271      6.995937
  Mn      6.662009      6.055340      8.136329
11
Coordinates from ORCA-job pbe E -2509.031743050679
  Au      6.744303      6.628319      5.500637
  Au      5.627910      4.115554      6.480166
  Au      4.206894      5.596107      4.769291
  Au      4.292932      6.991754      7.070675
  Au      7.261999      3.339422      8.399249
  Au      7.881989      8.007975      9.665233
  Au     10.478669      7.400219      9.283968
  Au      9.106465      5.123512      9.004407
  Au      5.283123      8.141910      9.229820
  Au      8.815364      7.218454      6.995289
  Mn      6.661847      6.054882      8.136753
11
Coordinates from ORCA-job pbe E -2509.031745050842
  Au      6.745254      6.626465      5.500269
  Au      5.623223      4.113937      6.481501
  Au      4.205702      5.598536      4.769945
  Au      4.295339      6.993674      7.070365
  Au      7.266160      3.339420      8.393249
  Au      7.881532      8.011563      9.660773
  Au     10.477291      7.402359      9.286271
  Au      9.106483      5.123815      9.008470
  Au      5.281161      8.140405      9.232986
  Au      8.817319      7.213897      6.994416
  Mn      6.662031      6.054035      8.137243
11
Coordinates from ORCA-job pbe E -2509.031748008826
  Au      6.747359      6.622355      5.500096
  Au      5.617110      4.111872      6.482866
  Au      4.203693      5.602486      4.771008
  Au      4.299372      6.997861      7.069438
  Au      7.271845      3.339474      8.384996
  Au      7.880289      8.016391      9.653945
  Au     10.474993      7.406083      9.288395
  Au      9.106341      5.124408      9.014539
  Au      5.277413      8.137528      9.239190
  Au      8.820766      7.207112      6.992826
  Mn      6.662316      6.052537      8.138187
11
Coordinates from ORCA-job pbe E -2509.031752365367
  Au      6.751107      6.614212      5.500047
  Au      5.607656      4.109123      6.485309
  Au      4.200128      5.608579      4.772820
  Au      4.306428      7.005365      7.067122
  Au      7.279895      3.340349      8.372669
  Au      7.877904      8.022576      9.643965
  Au     10.471305      7.412242      9.290981
  Au      9.106598      5.125174      9.023314
  Au      5.271158      8.132731      9.249217
  Au      8.825954      7.198041      6.990762
  Mn      6.663362      6.049715      8.139281
11
Coordinates from ORCA-job pbe E -2509.031758345076
  Au      6.756661      6.600546      5.499746
  Au      5.595186      4.106341      6.487816
  Au      4.194588      5.617565      4.775351
  Au      4.317370      7.016978      7.063366
  Au      7.290476      3.342418      8.356342
  Au      7.874026      8.029920      9.630208
  Au     10.466468      7.421414      9.293269
  Au      9.106957      5.126732      9.036266
  Au      5.262442      8.125042      9.264102
  Au      8.832302      7.186137      6.988217
  Mn      6.665019      6.045014      8.140804
11
Coordinates from ORCA-job pbe E -2509.031765121770
  Au      6.763329      6.583082      5.498777
  Au      5.579580      4.103519      6.491641
  Au      4.188214      5.628270      4.778226
  Au      4.331124      7.030577      7.058614
  Au      7.301812      3.346653      8.337767
  Au      7.869472      8.037247      9.614486
  Au     10.461314      7.432208      9.295974
  Au      9.108042      5.128567      9.051128
  Au      5.252681      8.115116      9.281069
  Au      8.838176      7.174462      6.986255
  Mn      6.667750      6.038405      8.141550
11
Coordinates from ORCA-job pbe E -2509.031770206356
  Au      6.768810      6.566749      5.497152
  Au      5.567488      4.102476      6.492002
  Au      4.182327      5.639233      4.780477
  Au      4.345059      7.042973      7.055151
  Au      7.309701      3.350741      8.325437
  Au      7.864110      8.044364      9.599068
  Au     10.456932      7.442166      9.296994
  Au      9.109087      5.130231      9.065135
  Au      5.245863      8.103481      9.296810
  Au      8.841328      7.165323      6.984836
  Mn      6.670790      6.030370      8.142426
11
Coordinates from ORCA-job pbe E -2509.031771968859
  Au      6.775179      6.553687      5.493657
  Au      5.554195      4.099664      6.499068
  Au      4.181748      5.646096      4.781340
  Au      4.354245      7.051087      7.051838
  Au      7.312603      3.359410      8.315749
  Au      7.863174      8.044486      9.590837
  Au     10.455846      7.449294      9.298211
  Au      9.110991      5.132061      9.072621
  Au      5.237906      8.093907      9.309408
  Au      8.842248      7.162358      6.984904
  Mn      6.673360      6.026058      8.137853
11
Coordinates from ORCA-job pbe E -2509.031777912237
  Au      6.771588      6.561524      5.493680
  Au      5.560296      4.100729      6.495373
  Au      4.182373      5.643196      4.780758
  Au      4.349554      7.045827      7.054405
  Au      7.309725      3.356319      8.322228
  Au      7.864016      8.043960      9.594648
  Au     10.457238      7.445891      9.298071
  Au      9.110873      5.131122      9.070009
  Au      5.242885      8.097739      9.302360
  Au      8.840264      7.164683      6.985506
  Mn      6.672683      6.027118      8.138449
11
Coordinates from ORCA-job pbe E -2509.031781103952
  Au      6.772060      6.560813      5.491613
  Au      5.555723      4.099615      6.495398
  Au      4.180990      5.646409      4.781169
  Au      4.352382      7.046995      7.054576
  Au      7.312649      3.357452      8.318817
  Au      7.863077      8.045732      9.590158
  Au     10.456324      7.448908      9.299125
  Au      9.111573      5.131812      9.076774
  Au      5.241964      8.095055      9.305957
  Au      8.841289      7.160011      6.984668
  Mn      6.673465      6.025307      8.137231
11
Coordinates from ORCA-job pbe E -2509.031783590157
  Au      6.770667      6.567045      5.488825
  Au      5.558259      4.098750      6.494438
  Au      4.183410      5.645973      4.780542
  Au      4.351481      7.044764      7.056284
  Au      7.307871      3.359651      8.326928
  Au      7.863057      8.043030      9.591048
  Au     10.457109      7.448246      9.297795
  Au      9.112150      5.131208      9.076409
  Au      5.243315      8.092935      9.306261
  Au      8.840085      7.161017      6.983568
  Mn      6.674089      6.025487      8.133388
11
Coordinates from ORCA-job pbe E -2509.031785242524
  Au      6.773063      6.562207      5.487957
  Au      5.550238      4.097446      6.497438
  Au      4.181512      5.651279      4.781611
  Au      4.356721      7.049167      7.055036
  Au      7.313183      3.362079      8.318876
  Au      7.861171      8.044716      9.583681
  Au     10.454966      7.453489      9.298722
  Au      9.112855      5.132191      9.084968
  Au      5.238973      8.088632      9.312853
  Au      8.843240      7.154690      6.982355
  Mn      6.675571      6.022212      8.131990
11
Coordinates from ORCA-job pbe E -2509.031785984598
  Au      6.773316      6.562437      5.488486
  Au      5.549435      4.097745      6.498568
  Au      4.181610      5.651904      4.781518
  Au      4.357473      7.049915      7.054661
  Au      7.313814      3.362450      8.318274
  Au      7.860509      8.044105      9.582329
  Au     10.454471      7.454336      9.297936
  Au      9.112659      5.132193      9.086356
  Au      5.237638      8.087786      9.314336
  Au      8.844647      7.153481      6.981677
  Mn      6.675922      6.021756      8.131346
11
Coordinates from ORCA-job pbe E -2509.031786364073
  Au      6.772700      6.564091      5.489250
  Au      5.550359      4.098449      6.499087
  Au      4.181592      5.651520      4.781527
  Au      4.357408      7.049726      7.054535
  Au      7.313707      3.361920      8.318957
  Au      7.860090      8.043671      9.581876
  Au     10.454133      7.453994      9.297370
  Au      9.112388      5.131655      9.086565
  Au      5.237337      8.087999      9.313997
  Au      8.845377      7.153584      6.981333
  Mn      6.676404      6.021499      8.130989
