19
E=  -2035.06193442;c=0;m=5
Au      4.810189216301090     12.175713883534319      8.279435901322920
Au      2.325180396121960      5.250735323072520      9.507250738068381
Au      4.415028937027910      5.231627296719010      7.627237018865760
Au      2.561619715967120      7.425675220663400      7.757318646084070
Au      4.969921849568440      5.527808348365870     10.419948182012130
Au      3.118274995517050      7.723533860009340     10.558946509440240
Au      4.023789144632110     10.227892689848940     10.127750683297011
Au      5.903574171516550      8.213146173776281     10.753123081960419
Au      3.462037398314150      9.927578498969570      7.301129224671750
Au      6.222368852693530     10.370945065396660      6.661123284322650
Au      5.044205334032650      7.754810691891630      6.430078735979290
Au      9.400988988362331      7.107018689258750      7.903952732473810
Au      8.931650028926921     10.089852578649220      7.681269836872860
Au      8.669931850141021      8.704057326323801     10.224327994540101
Au      7.577674638879600      6.065145608953570      9.856307056917849
Au      6.800996514870740     10.679764977185830      9.570829238489960
Au      7.782554652685660      8.231251675500941      5.761429756113810
Au      7.018152591223400      5.766385289009390      7.039089347965800
Fe      6.994634083217750      8.208808012870961      8.265280960601190
