16
E=  -1689.85201751;c=0;m=5
Au      4.220768982933140      7.469115758183560      8.915811198454460
Au      8.523702157759759     10.106058446996901      9.614916498146000
Au      5.908654185565510      9.350102626752840     10.131183443454089
Au     10.296787528115759      7.800634821251740     10.061972202492131
Au      8.482479247966870      5.678000752296380     10.339522201465160
Au      7.991525433700600      8.248350902921210     11.634802668461440
Au      5.871139827051540      6.517890138621090     10.928987941242260
Au      6.493822349605640      5.515516338095600      8.393635004595630
Au      4.959014927560560      6.736638192043710      6.316606693497310
Au      7.568120438663530      5.770034845135440      5.809499281464040
Au      9.286435729084779      7.989963677624000      5.467782870651110
Au      7.926571226741280     10.317139931229081      6.846771930924520
Au     10.393659253885749      9.255999693141140      7.705852970738000
Au      9.442057149005700      6.369190879753030      7.815974508268760
Au      5.305678608968450      9.558104328508559      7.363763042200700
Mn      6.943304093391130      8.164599637445690      6.161613953944390
