16
Coordinates from ORCA-job pbe E -3188.221475320719
  Au      4.304446      7.510290      8.637414
  Au      8.496863     10.166002      9.468053
  Au      5.843109      9.398119     10.007936
  Au     10.227680      7.843692      9.867181
  Au      8.365006      5.736813      9.843071
  Au      7.948548      8.212646     11.361167
  Au      5.839071      6.564050     10.732881
  Au      6.049223      5.302826      8.281331
  Au      5.739624      7.209013      6.204678
  Au      7.769830      5.299294      6.143925
  Au      8.439617      7.957712      5.669948
  Au      7.817590     10.432052      6.728059
  Au     10.209221      9.224977      7.474413
  Au      9.859731      6.394367      7.549312
  Au      5.261871      9.723168      7.260031
  Mn      7.442291      7.872320      8.279295
16
Coordinates from ORCA-job pbe E -3188.221505221590
  Au      4.305222      7.508929      8.635020
  Au      8.496287     10.166562      9.467772
  Au      5.843125      9.398108     10.006165
  Au     10.226499      7.843778      9.867236
  Au      8.365474      5.737870      9.844972
  Au      7.947922      8.213136     11.358870
  Au      5.839947      6.564508     10.731900
  Au      6.051346      5.302965      8.282685
  Au      5.739176      7.210354      6.205918
  Au      7.768462      5.299652      6.141119
  Au      8.439390      7.958569      5.671382
  Au      7.817139     10.431796      6.730376
  Au     10.209188      9.222889      7.472699
  Au      9.858982      6.393093      7.549862
  Au      5.262777      9.722763      7.261334
  Mn      7.442786      7.872370      8.281385
16
Coordinates from ORCA-job pbe E -3188.221608185388
  Au      4.302606      7.499842      8.623077
  Au      8.497124     10.173880      9.466644
  Au      5.838507      9.400815     10.000074
  Au     10.226115      7.844971      9.867846
  Au      8.370808      5.738454      9.857628
  Au      7.945752      8.217023     11.352941
  Au      5.839698      6.564419     10.731440
  Au      6.062799      5.299767      8.287351
  Au      5.737229      7.215275      6.208723
  Au      7.761128      5.300459      6.124076
  Au      8.437844      7.961783      5.676474
  Au      7.816657     10.435340      6.739852
  Au     10.213341      9.213123      7.462770
  Au      9.855578      6.384069      7.551371
  Au      5.262512      9.725674      7.265296
  Mn      7.446022      7.872445      8.293132
16
Coordinates from ORCA-job pbe E -3188.221681724312
  Au      4.304002      7.490343      8.613631
  Au      8.500063     10.178344      9.463910
  Au      5.834092      9.400698      9.994293
  Au     10.223375      7.847229      9.863134
  Au      8.376153      5.737727      9.868313
  Au      7.942615      8.221413     11.344245
  Au      5.838886      6.566727     10.727193
  Au      6.078845      5.301170      8.289418
  Au      5.740251      7.218189      6.212822
  Au      7.753690      5.307092      6.112243
  Au      8.433551      7.962648      5.684388
  Au      7.817551     10.437045      6.749650
  Au     10.213490      9.201751      7.456742
  Au      9.844851      6.377032      7.554271
  Au      5.262314      9.728128      7.268547
  Mn      7.449992      7.871805      8.305896
16
Coordinates from ORCA-job pbe E -3188.221759391165
  Au      4.303331      7.483373      8.608414
  Au      8.504550     10.183314      9.463140
  Au      5.829354      9.400499      9.991244
  Au     10.223998      7.850261      9.859638
  Au      8.381135      5.732634      9.879894
  Au      7.939269      8.226490     11.339125
  Au      5.835245      6.569657     10.724747
  Au      6.092595      5.300093      8.290642
  Au      5.740738      7.221038      6.214766
  Au      7.749417      5.305640      6.097891
  Au      8.430110      7.965281      5.686702
  Au      7.818337     10.441759      6.755550
  Au     10.215917      9.195990      7.452650
  Au      9.836738      6.367974      7.556317
  Au      5.259170      9.732239      7.269313
  Mn      7.453816      7.871100      8.318665
16
Coordinates from ORCA-job pbe E -3188.221848404463
  Au      4.303423      7.479229      8.605665
  Au      8.511382     10.187479      9.462959
  Au      5.824332      9.400528      9.989251
  Au     10.224114      7.852814      9.854084
  Au      8.386709      5.722399      9.894308
  Au      7.936717      8.231675     11.335623
  Au      5.830430      6.573822     10.722143
  Au      6.110143      5.300333      8.288119
  Au      5.743758      7.223511      6.217181
  Au      7.747751      5.302371      6.082384
  Au      8.424929      7.967893      5.688598
  Au      7.818276     10.445743      6.758626
  Au     10.215432      9.193206      7.450395
  Au      9.822236      6.359709      7.558534
  Au      5.255127      9.736855      7.266398
  Mn      7.458962      7.869774      8.334430
16
Coordinates from ORCA-job pbe E -3188.221910111984
  Au      4.305034      7.478590      8.604376
  Au      8.516663     10.190674      9.463625
  Au      5.821454      9.401750      9.987042
  Au     10.222328      7.852258      9.850218
  Au      8.390521      5.712584      9.908556
  Au      7.935395      8.234439     11.333890
  Au      5.828772      6.577194     10.719214
  Au      6.125940      5.303107      8.285020
  Au      5.747581      7.224942      6.220303
  Au      7.747454      5.298191      6.066607
  Au      8.420387      7.969484      5.689394
  Au      7.816411     10.447950      6.758925
  Au     10.213131      9.193448      7.448902
  Au      9.806902      6.354944      7.561056
  Au      5.251745      9.739548      7.262114
  Mn      7.464003      7.868236      8.349453
16
Coordinates from ORCA-job pbe E -3188.221964820736
  Au      4.307015      7.481085      8.604095
  Au      8.519915     10.193389      9.464497
  Au      5.820945      9.405371      9.984461
  Au     10.218879      7.848864      9.847627
  Au      8.393585      5.703095      9.923788
  Au      7.935222      8.235987     11.334223
  Au      5.830148      6.579112     10.716703
  Au      6.140548      5.307344      8.280770
  Au      5.752081      7.225462      6.223782
  Au      7.747688      5.293174      6.048492
  Au      8.417133      7.970448      5.690007
  Au      7.813172     10.447719      6.757382
  Au     10.208846      9.195846      7.448210
  Au      9.790332      6.353343      7.563702
  Au      5.248809      9.740592      7.256547
  Mn      7.469404      7.866510      8.364409
16
Coordinates from ORCA-job pbe E -3188.221999879703
  Au      4.309181      7.485340      8.605789
  Au      8.519427     10.195382      9.465473
  Au      5.823323      9.410147      9.982129
  Au     10.215464      7.844028      9.847572
  Au      8.394630      5.697607      9.934326
  Au      7.935380      8.236549     11.336608
  Au      5.834090      6.578821     10.714358
  Au      6.149128      5.311933      8.277001
  Au      5.755543      7.224848      6.226720
  Au      7.747620      5.289480      6.033993
  Au      8.416709      7.969792      5.689802
  Au      7.809543     10.445578      6.754606
  Au     10.205396      9.199414      7.449293
  Au      9.778488      6.354111      7.564877
  Au      5.246609      9.739234      7.252184
  Mn      7.473188      7.865077      8.373966
16
Coordinates from ORCA-job pbe E -3188.222015785429
  Au      4.309875      7.488489      8.608392
  Au      8.516543     10.196244      9.465584
  Au      5.826555      9.414283      9.980856
  Au     10.213396      7.840893      9.848526
  Au      8.394827      5.697307      9.937403
  Au      7.935603      8.237330     11.339177
  Au      5.837712      6.577047     10.713217
  Au      6.150672      5.313703      8.274638
  Au      5.756681      7.224214      6.227817
  Au      7.746885      5.288105      6.027130
  Au      8.418933      7.968773      5.689845
  Au      7.807649     10.442495      6.752983
  Au     10.203827      9.201317      7.451810
  Au      9.774526      6.355398      7.564488
  Au      5.245418      9.737335      7.250614
  Mn      7.474619      7.864410      8.376217
16
Coordinates from ORCA-job pbe E -3188.222023645978
  Au      4.310302      7.489628      8.610802
  Au      8.513817     10.197379      9.465367
  Au      5.828721      9.417021      9.979859
  Au     10.212659      7.839533      9.849723
  Au      8.395003      5.698801      9.937420
  Au      7.935100      8.238759     11.341135
  Au      5.840047      6.575416     10.711958
  Au      6.150383      5.314160      8.273241
  Au      5.756908      7.224355      6.228400
  Au      7.745301      5.288331      6.024080
  Au      8.421337      7.967584      5.689907
  Au      7.806606     10.440047      6.752554
  Au     10.204183      9.201512      7.454314
  Au      9.774092      6.355019      7.563277
  Au      5.244219      9.735799      7.250792
  Mn      7.475045      7.863997      8.375869
