17
E=  -1788.51819705;c=0;m=3
Au     11.652199455447450      8.789346352575890      8.206466529612211
Au      9.600695237352181      7.378384260057180      6.625410510490300
Au      9.885920596969990     10.215586345759080      6.537583593693650
Au      7.819332791485760      9.127818272367019      5.092695800274330
Au      7.002051221332300      6.393438862443260      5.707546852166700
Au      5.699621103544900      7.937680778842020      3.848131187161630
Au      7.260666700530160     10.509458650347179      7.615516881490520
Au      9.652369977339619     11.465264988051519      9.052076274159480
Au      7.496463947286450      7.305400845660260     10.094968929044381
Au      7.630826124148350     10.083300821468830     10.532857630596229
Au      8.096489467301909      5.419988691218980      8.027971879533430
Au     10.374349660519091      9.184582245010940     10.953024999645860
Au     10.168889700424771      6.687450536123270      9.459043545171980
Au      5.449841825474680      6.400297540480300      8.119235547757659
Au      5.263065405944570      8.720750396408629      6.443524044982270
Au      5.404522812613310      9.022959991199039      9.167164088421190
Cr      9.143917952284511      8.963083441986580      8.745668995797940
