17
Coordinates from ORCA-job pbe E -3217.480663171579
  Au     11.652199      8.789346      8.206467
  Au      9.600695      7.378384      6.625411
  Au      9.885921     10.215586      6.537584
  Au      7.819333      9.127818      5.092696
  Au      7.002051      6.393439      5.707547
  Au      5.699621      7.937681      3.848131
  Au      7.260667     10.509459      7.615517
  Au      9.652370     11.465265      9.052076
  Au      7.496464      7.305401     10.094969
  Au      7.630826     10.083301     10.532858
  Au      8.096489      5.419989      8.027972
  Au     10.374350      9.184582     10.953025
  Au     10.168890      6.687451      9.459044
  Au      5.449842      6.400298      8.119236
  Au      5.263065      8.720750      6.443524
  Au      5.404523      9.022960      9.167164
  Cr      9.143918      8.963083      8.745669
17
Coordinates from ORCA-job pbe E -3217.483986395728
  Au     11.646605      8.771139      8.177286
  Au      9.588814      7.378188      6.624222
  Au      9.875196     10.212672      6.520801
  Au      7.825352      9.124468      5.118007
  Au      7.017293      6.412501      5.732481
  Au      5.722662      7.946262      3.875864
  Au      7.256216     10.498643      7.611169
  Au      9.625413     11.475129      9.031362
  Au      7.490911      7.303904     10.086582
  Au      7.608088     10.076315     10.536861
  Au      8.097269      5.446735      8.028253
  Au     10.364585      9.177153     10.954557
  Au     10.156122      6.666456      9.458681
  Au      5.480013      6.424169      8.115790
  Au      5.292274      8.721127      6.462773
  Au      5.428980      9.017898      9.157453
  Cr      9.125432      8.952034      8.736746
17
Coordinates from ORCA-job pbe E -3217.486385308801
  Au     11.638816      8.734240      8.131106
  Au      9.586645      7.372971      6.612371
  Au      9.891786     10.228553      6.508024
  Au      7.835076      9.127967      5.131021
  Au      7.032269      6.424772      5.744504
  Au      5.728302      7.954642      3.862983
  Au      7.247260     10.501203      7.602157
  Au      9.575637     11.493502      9.001579
  Au      7.481812      7.293236     10.098603
  Au      7.592642     10.078037     10.568168
  Au      8.109940      5.462694      8.041375
  Au     10.353488      9.167936     10.959061
  Au     10.161096      6.639666      9.480880
  Au      5.503050      6.441524      8.116714
  Au      5.311540      8.727635      6.473310
  Au      5.451319      9.020791      9.166887
  Cr      9.100547      8.935425      8.730144
17
Coordinates from ORCA-job pbe E -3217.488101559909
  Au     11.616393      8.685182      8.088844
  Au      9.588713      7.370708      6.594825
  Au      9.907982     10.240976      6.504589
  Au      7.840278      9.128386      5.142611
  Au      7.043831      6.445380      5.748643
  Au      5.744507      7.962514      3.876631
  Au      7.240823     10.509438      7.588266
  Au      9.511220     11.499876      8.975439
  Au      7.475957      7.281961     10.119959
  Au      7.596675     10.077584     10.598917
  Au      8.125631      5.478088      8.052316
  Au     10.336875      9.159858     10.946045
  Au     10.170466      6.631578      9.509004
  Au      5.522318      6.457677      8.111791
  Au      5.334909      8.732393      6.472595
  Au      5.473614      9.027458      9.175992
  Cr      9.071031      8.915735      8.722421
17
Coordinates from ORCA-job pbe E -3217.489474744609
  Au     11.597850      8.635517      8.065854
  Au      9.599564      7.368944      6.572817
  Au      9.922920     10.251782      6.503729
  Au      7.853554      9.137835      5.144681
  Au      7.055214      6.451389      5.753418
  Au      5.738268      7.962389      3.861857
  Au      7.236234     10.527667      7.572805
  Au      9.453811     11.502605      8.967975
  Au      7.475915      7.273283     10.147030
  Au      7.607629     10.070883     10.622815
  Au      8.143375      5.494593      8.063756
  Au     10.319739      9.153148     10.926163
  Au     10.174455      6.633922      9.535639
  Au      5.539817      6.470201      8.113599
  Au      5.345093      8.739575      6.477859
  Au      5.497460      9.035382      9.185493
  Cr      9.040327      8.895680      8.713394
17
Coordinates from ORCA-job pbe E -3217.490761030561
  Au     11.590449      8.600425      8.065735
  Au      9.608371      7.364625      6.541619
  Au      9.937076     10.259217      6.513033
  Au      7.853543      9.140054      5.138132
  Au      7.058282      6.458408      5.750765
  Au      5.734000      7.957775      3.865876
  Au      7.225944     10.548526      7.549569
  Au      9.420543     11.503519      8.978868
  Au      7.476714      7.263586     10.179575
  Au      7.621962     10.063277     10.640640
  Au      8.156617      5.508504      8.068470
  Au     10.312988      9.155201     10.902278
  Au     10.177126      6.641997      9.558752
  Au      5.550041      6.478465      8.111099
  Au      5.351326      8.741782      6.473814
  Au      5.515472      9.042153      9.188353
  Cr      9.010769      8.877276      8.702309
17
Coordinates from ORCA-job pbe E -3217.492183882544
  Au     11.581760      8.582202      8.077724
  Au      9.616657      7.362547      6.514111
  Au      9.935288     10.252254      6.531540
  Au      7.858422      9.145324      5.133462
  Au      7.062012      6.462137      5.747017
  Au      5.731128      7.955710      3.865494
  Au      7.218885     10.567487      7.528587
  Au      9.405452     11.494773      8.993913
  Au      7.476069      7.252523     10.213159
  Au      7.632128     10.052228     10.650186
  Au      8.165223      5.521831      8.071653
  Au     10.323817      9.173302     10.869086
  Au     10.173190      6.650053      9.575169
  Au      5.556225      6.482790      8.110850
  Au      5.354620      8.745706      6.470143
  Au      5.531117      9.045515      9.188521
  Cr      8.979231      8.858411      8.688271
17
Coordinates from ORCA-job pbe E -3217.493806362024
  Au     11.575095      8.582946      8.103660
  Au      9.623471      7.361220      6.493630
  Au      9.928107     10.239094      6.557763
  Au      7.859485      9.148669      5.125826
  Au      7.063013      6.463151      5.743093
  Au      5.727901      7.953568      3.864707
  Au      7.214124     10.582462      7.512934
  Au      9.412097     11.478306      9.015179
  Au      7.471295      7.240617     10.239641
  Au      7.638160     10.039440     10.654098
  Au      8.166266      5.534648      8.071675
  Au     10.352901      9.207540     10.828445
  Au     10.164837      6.656566      9.586265
  Au      5.558769      6.484954      8.108866
  Au      5.354618      8.747813      6.466546
  Au      5.542857      9.043445      9.183484
  Cr      8.948229      8.840355      8.673076
17
Coordinates from ORCA-job pbe E -3217.495377535133
  Au     11.565425      8.588308      8.126110
  Au      9.629944      7.361531      6.482720
  Au      9.917508     10.225077      6.578393
  Au      7.862165      9.152130      5.121488
  Au      7.066074      6.465387      5.740190
  Au      5.729780      7.955545      3.863185
  Au      7.213542     10.592986      7.504936
  Au      9.420902     11.459495      9.030969
  Au      7.461914      7.226851     10.261374
  Au      7.639846     10.025709     10.660569
  Au      8.165873      5.546404      8.072291
  Au     10.390034      9.250191     10.781195
  Au     10.154989      6.658298      9.598511
  Au      5.559317      6.485930      8.105908
  Au      5.356747      8.751158      6.463959
  Au      5.553341      9.040142      9.178975
  Cr      8.913822      8.819651      8.658114
17
Coordinates from ORCA-job pbe E -3217.496793398233
  Au     11.555458      8.589200      8.141011
  Au      9.637225      7.361944      6.475281
  Au      9.914035     10.218713      6.591241
  Au      7.864942      9.155492      5.117447
  Au      7.070088      6.468525      5.739897
  Au      5.731861      7.957751      3.861473
  Au      7.214347     10.602650      7.500207
  Au      9.423365     11.444350      9.041730
  Au      7.449928      7.212292     10.279697
  Au      7.642996     10.012256     10.671368
  Au      8.166027      5.559981      8.074074
  Au     10.420025      9.287187     10.735119
  Au     10.146887      6.659722      9.614531
  Au      5.561557      6.488095      8.103155
  Au      5.360760      8.754162      6.463613
  Au      5.565890      9.036534      9.175029
  Cr      8.875833      8.795940      8.644013
17
Coordinates from ORCA-job pbe E -3217.498102231045
  Au     11.546318      8.586794      8.141572
  Au      9.645292      7.363202      6.471867
  Au      9.914123     10.217567      6.595564
  Au      7.869496      9.159292      5.115920
  Au      7.075695      6.473265      5.740532
  Au      5.736174      7.961563      3.860110
  Au      7.217402     10.610990      7.498937
  Au      9.418646     11.436219      9.041344
  Au      7.436120      7.196851     10.296683
  Au      7.647690      9.999896     10.686204
  Au      8.168560      5.573411      8.077657
  Au     10.440019      9.313626     10.698593
  Au     10.141274      6.660848      9.633841
  Au      5.563177      6.489530      8.101315
  Au      5.367079      8.757975      6.463950
  Au      5.579670      9.034572      9.173483
  Cr      8.834486      8.769192      8.631316
17
Coordinates from ORCA-job pbe E -3217.499253257886
  Au     11.539144      8.579303      8.136596
  Au      9.654108      7.364234      6.466853
  Au      9.917750     10.220954      6.593886
  Au      7.872966      9.162615      5.113139
  Au      7.081501      6.478498      5.742293
  Au      5.738230      7.963568      3.859164
  Au      7.220113     10.620517      7.496600
  Au      9.408057     11.433192      9.038144
  Au      7.423828      7.182689     10.313156
  Au      7.659615      9.988810     10.700210
  Au      8.174242      5.589114      8.082080
  Au     10.442891      9.323207     10.674193
  Au     10.138906      6.668736      9.653697
  Au      5.566515      6.491659      8.101328
  Au      5.374277      8.761503      6.465123
  Au      5.596864      9.034824      9.172815
  Cr      8.792216      8.741368      8.619610
17
Coordinates from ORCA-job pbe E -3217.500134939696
  Au     11.534781      8.581193      8.134273
  Au      9.662906      7.366143      6.462498
  Au      9.916972     10.221789      6.589935
  Au      7.874982      9.164930      5.109936
  Au      7.086370      6.483559      5.742582
  Au      5.739321      7.964890      3.857853
  Au      7.223738     10.629543      7.494434
  Au      9.407368     11.429674      9.034722
  Au      7.411247      7.168169     10.329757
  Au      7.673720      9.978448     10.711309
  Au      8.181848      5.602760      8.086321
  Au     10.440752      9.327270     10.655758
  Au     10.137186      6.679482      9.671163
  Au      5.566223      6.491059      8.101701
  Au      5.380655      8.764898      6.464727
  Au      5.612969      9.037591      9.173219
  Cr      8.750186      8.713397      8.608700
17
Coordinates from ORCA-job pbe E -3217.500711301325
  Au     11.530821      8.588127      8.137073
  Au      9.672319      7.368667      6.455072
  Au      9.915595     10.221023      6.589927
  Au      7.875055      9.166445      5.104498
  Au      7.089590      6.488114      5.744637
  Au      5.736827      7.963124      3.857327
  Au      7.227233     10.640510      7.489542
  Au      9.412906     11.423544      9.033534
  Au      7.398282      7.153293     10.346386
  Au      7.688336      9.968623     10.718530
  Au      8.189751      5.617500      8.088968
  Au     10.436627      9.328533     10.641526
  Au     10.135248      6.692149      9.685008
  Au      5.567162      6.491665      8.101475
  Au      5.386379      8.766231      6.465476
  Au      5.629754      9.040952      9.172130
  Cr      8.709341      8.686291      8.597776
17
Coordinates from ORCA-job pbe E -3217.501002662524
  Au     11.527787      8.597592      8.133808
  Au      9.683336      7.372055      6.449043
  Au      9.909021     10.217775      6.585001
  Au      7.876035      9.168607      5.099227
  Au      7.093357      6.493253      5.746475
  Au      5.736822      7.963027      3.857050
  Au      7.232071     10.652180      7.485817
  Au      9.419531     11.419836      9.026829
  Au      7.384114      7.136849     10.365005
  Au      7.698381      9.959633     10.726133
  Au      8.200440      5.629657      8.091627
  Au     10.434663      9.328550     10.637426
  Au     10.132621      6.700081      9.697425
  Au      5.566424      6.491090      8.102090
  Au      5.392530      8.768069      6.465959
  Au      5.644929      9.047129      9.172478
  Cr      8.669162      8.659410      8.587495
17
Coordinates from ORCA-job pbe E -3217.501163219697
  Au     11.523759      8.593840      8.139649
  Au      9.690157      7.364175      6.439755
  Au      9.904489     10.212855      6.588625
  Au      7.876309      9.170775      5.093172
  Au      7.095029      6.495277      5.746157
  Au      5.737857      7.964792      3.854369
  Au      7.224594     10.663886      7.482831
  Au      9.416307     11.414626      9.031648
  Au      7.380758      7.129772     10.378253
  Au      7.709127      9.946971     10.733585
  Au      8.203348      5.637333      8.092025
  Au     10.442382      9.338935     10.622170
  Au     10.127196      6.709913      9.712735
  Au      5.570104      6.494399      8.099993
  Au      5.394431      8.769488      6.465316
  Au      5.653079      9.047826      9.171029
  Cr      8.652299      8.649931      8.577572
17
Coordinates from ORCA-job pbe E -3217.501330225654
  Au     11.519918      8.586173      8.133423
  Au      9.697960      7.353808      6.434236
  Au      9.897174     10.206098      6.590579
  Au      7.878155      9.173711      5.089304
  Au      7.097843      6.498696      5.745876
  Au      5.742839      7.969640      3.851090
  Au      7.215880     10.675589      7.484524
  Au      9.406774     11.414720      9.027494
  Au      7.376298      7.123392     10.386523
  Au      7.719578      9.927869     10.743573
  Au      8.207213      5.644191      8.094932
  Au     10.453451      9.349752     10.614429
  Au     10.115889      6.719490      9.732590
  Au      5.574474      6.498057      8.098547
  Au      5.397526      8.771522      6.464371
  Au      5.660823      9.047964      9.171945
  Cr      8.639427      8.644121      8.565453
17
Coordinates from ORCA-job pbe E -3217.501490893349
  Au     11.520301      8.579527      8.131549
  Au      9.703630      7.342609      6.433057
  Au      9.889938     10.199531      6.592422
  Au      7.877218      9.174440      5.087189
  Au      7.099569      6.500194      5.746514
  Au      5.745430      7.972869      3.848731
  Au      7.207290     10.683104      7.489765
  Au      9.400262     11.416647      9.026897
  Au      7.367405      7.118282     10.380496
  Au      7.730001      9.903782     10.749979
  Au      8.208836      5.647295      8.094856
  Au     10.472643      9.366009     10.610543
  Au     10.100163      6.731546      9.751660
  Au      5.577151      6.499993      8.098557
  Au      5.398937      8.773162      6.464725
  Au      5.664407      9.048288      9.171182
  Cr      8.638042      8.647515      8.550765
17
Coordinates from ORCA-job pbe E -3217.501598794023
  Au     11.520594      8.567914      8.127964
  Au      9.708079      7.338484      6.429102
  Au      9.888426     10.197422      6.593984
  Au      7.876437      9.173909      5.088698
  Au      7.101673      6.501731      5.747930
  Au      5.744090      7.970532      3.850019
  Au      7.203081     10.689845      7.489705
  Au      9.390499     11.420443      9.029398
  Au      7.354910      7.111615     10.372981
  Au      7.741838      9.886090     10.754878
  Au      8.216211      5.648806      8.093995
  Au     10.485488      9.374822     10.612552
  Au     10.088331      6.743540      9.765460
  Au      5.577625      6.499720      8.099959
  Au      5.400314      8.773988      6.465233
  Au      5.666233      9.054161      9.170948
  Cr      8.637396      8.651774      8.536081
17
Coordinates from ORCA-job pbe E -3217.501662602729
  Au     11.523996      8.562612      8.136439
  Au      9.711251      7.340035      6.426260
  Au      9.891562     10.199705      6.595625
  Au      7.874173      9.171626      5.092212
  Au      7.100721      6.501482      5.750603
  Au      5.737923      7.965506      3.854241
  Au      7.205990     10.691791      7.487790
  Au      9.387149     11.421909      9.035123
  Au      7.339669      7.104736     10.358163
  Au      7.749473      9.870842     10.753683
  Au      8.221244      5.647208      8.090784
  Au     10.498055      9.385263     10.611638
  Au     10.080210      6.754925      9.772837
  Au      5.575389      6.497558      8.102637
  Au      5.400747      8.773514      6.467787
  Au      5.667743      9.061351      9.171326
  Cr      8.635929      8.654731      8.521739
17
Coordinates from ORCA-job pbe E -3217.501682688595
  Au     11.523343      8.558772      8.129539
  Au      9.710145      7.343658      6.423405
  Au      9.899875     10.203660      6.600952
  Au      7.874723      9.169548      5.099338
  Au      7.100617      6.500185      5.753894
  Au      5.735517      7.960207      3.858046
  Au      7.206731     10.692404      7.483570
  Au      9.384426     11.424158      9.038035
  Au      7.332121      7.102673     10.349312
  Au      7.754780      9.868165     10.755467
  Au      8.225798      5.643038      8.087531
  Au     10.502943      9.386682     10.616265
  Au     10.076398      6.758153      9.775216
  Au      5.573620      6.496109      8.102418
  Au      5.399572      8.771171      6.469844
  Au      5.661355      9.067000      9.169040
  Cr      8.639258      8.659210      8.517015
17
Coordinates from ORCA-job pbe E -3217.501699615042
  Au     11.523082      8.554928      8.132949
  Au      9.710601      7.344855      6.419161
  Au      9.901507     10.205541      6.600325
  Au      7.875905      9.169652      5.101389
  Au      7.100487      6.499728      5.754018
  Au      5.736002      7.960433      3.859486
  Au      7.207479     10.693851      7.479339
  Au      9.380650     11.423850      9.039899
  Au      7.333706      7.103287     10.350338
  Au      7.753413      9.866543     10.754159
  Au      8.229036      5.641718      8.088038
  Au     10.501576      9.386376     10.613763
  Au     10.075468      6.758266      9.774105
  Au      5.574414      6.496410      8.104510
  Au      5.399290      8.771363      6.470398
  Au      5.662209      9.070490      9.171922
  Cr      8.636400      8.657503      8.515089
17
Coordinates from ORCA-job pbe E -3217.501709276617
  Au     11.523235      8.555826      8.134686
  Au      9.709997      7.344749      6.418365
  Au      9.902721     10.206777      6.600969
  Au      7.877355      9.169609      5.104873
  Au      7.099099      6.498543      5.754620
  Au      5.738339      7.963161      3.860076
  Au      7.207985     10.692568      7.478034
  Au      9.379860     11.423615      9.036986
  Au      7.334990      7.104106     10.348948
  Au      7.752309      9.865478     10.753576
  Au      8.227796      5.638771      8.086545
  Au     10.501602      9.387604     10.611482
  Au     10.076618      6.758591      9.774167
  Au      5.575320      6.497363      8.105407
  Au      5.398475      8.770900      6.471809
  Au      5.660849      9.071436      9.172790
  Cr      8.634676      8.655697      8.515554
17
Coordinates from ORCA-job pbe E -3217.501716320284
  Au     11.522324      8.555706      8.132972
  Au      9.709365      7.345108      6.417546
  Au      9.905144     10.208071      6.601859
  Au      7.878796      9.168806      5.108985
  Au      7.098005      6.496404      5.755803
  Au      5.742596      7.965492      3.860132
  Au      7.207094     10.692939      7.476241
  Au      9.379967     11.422802      9.040392
  Au      7.334938      7.105135     10.345760
  Au      7.753642      9.863580     10.753245
  Au      8.229513      5.635972      8.086668
  Au     10.503605      9.390208     10.607171
  Au     10.073341      6.759449      9.774110
  Au      5.578054      6.498775      8.108057
  Au      5.396275      8.769195      6.472814
  Au      5.657622      9.073604      9.172927
  Cr      8.630942      8.653545      8.514204
17
Coordinates from ORCA-job pbe E -3217.501722960993
  Au     11.522436      8.553392      8.131047
  Au      9.709302      7.343594      6.416570
  Au      9.906666     10.208855      6.603742
  Au      7.879335      9.168103      5.111520
  Au      7.097067      6.495225      5.755914
  Au      5.744675      7.967248      3.859812
  Au      7.205724     10.693669      7.475777
  Au      9.376665     11.424336      9.038278
  Au      7.333977      7.104716     10.344625
  Au      7.754629      9.861419     10.753999
  Au      8.231599      5.633470      8.085033
  Au     10.504841      9.390908     10.607608
  Au     10.072545      6.760715      9.775399
  Au      5.580310      6.500103      8.109538
  Au      5.394907      8.768566      6.473024
  Au      5.656086      9.076999      9.173837
  Cr      8.630460      8.653476      8.513165
17
Coordinates from ORCA-job pbe E -3217.501727056178
  Au     11.522971      8.551329      8.129906
  Au      9.709902      7.341852      6.416852
  Au      9.905812     10.207985      6.604656
  Au      7.879626      9.167587      5.113405
  Au      7.095995      6.494560      5.755568
  Au      5.746656      7.969177      3.858678
  Au      7.204239     10.694358      7.476504
  Au      9.374232     11.425603      9.038122
  Au      7.331534      7.102932     10.344309
  Au      7.756854      9.859222     10.754713
  Au      8.233839      5.631709      8.083971
  Au     10.506994      9.392888     10.606428
  Au     10.071703      6.762829      9.776972
  Au      5.582965      6.501987      8.110926
  Au      5.393909      8.768008      6.472754
  Au      5.655145      9.079954      9.173767
  Cr      8.628848      8.652813      8.511358
17
Coordinates from ORCA-job pbe E -3217.501729270147
  Au     11.523817      8.550248      8.129437
  Au      9.710073      7.340875      6.417272
  Au      9.905857     10.207560      6.606334
  Au      7.879455      9.166893      5.114203
  Au      7.094772      6.493744      5.755259
  Au      5.747641      7.970116      3.857428
  Au      7.203372     10.694949      7.477079
  Au      9.373272     11.426742      9.038491
  Au      7.330578      7.102303     10.344215
  Au      7.757065      9.858464     10.754205
  Au      8.235184      5.630659      8.083411
  Au     10.507023      9.393159     10.605353
  Au     10.070775      6.763358      9.776197
  Au      5.586640      6.504150      8.112658
  Au      5.392718      8.767081      6.472178
  Au      5.654699      9.081802      9.174345
  Cr      8.628282      8.652691      8.510820
17
Coordinates from ORCA-job pbe E -3217.501730410053
  Au     11.524664      8.550357      8.129408
  Au      9.709825      7.340841      6.417815
  Au      9.905197     10.206893      6.606987
  Au      7.879516      9.166561      5.115028
  Au      7.094331      6.493481      5.754796
  Au      5.748141      7.970629      3.856802
  Au      7.203304     10.694558      7.477272
  Au      9.373423     11.427380      9.039072
  Au      7.330752      7.102025     10.345328
  Au      7.756401      9.859103     10.753732
  Au      8.235617      5.629679      8.083020
  Au     10.506433      9.393181     10.603968
  Au     10.070924      6.762779      9.775041
  Au      5.588229      6.505262      8.113424
  Au      5.392402      8.766993      6.471790
  Au      5.654142      9.082670      9.174227
  Cr      8.627925      8.652401      8.511178
