13
E=  -1382.44324435;c=0;m=3
Au      9.575506373670139      9.751306995991310     10.183662292048050
Au     12.283221676149370      9.842762362636959      9.458716892120981
Au      9.201789526018000      7.085741383174930     11.362423081919159
Au     11.615465416126129      8.388936400556780     11.834783439747129
Au      7.089753967281930      5.880543131604640      9.966760509609600
Au      7.050645857972430      8.786548313880081     10.069979340864149
Au      6.212106668729560      7.345886312763710      7.768228069487760
Au     10.436123356622010      9.273155732101070      7.482838583943780
Au     10.353903540646099      6.381311144954320      7.010604828217560
Au      8.309952938077229      8.163279755911949      6.176900452955970
Au     11.510067017755659      7.136869612749040      9.394492555771389
Au      9.657493932201319      5.017887122582930      9.371109387732650
Fe      8.720655718750050      7.505745041092180      8.654244045581819
