13
Coordinates from ORCA-job pbe E -2893.385808718230
  Au      9.575506      9.751307     10.183662
  Au     12.283222      9.842762      9.458717
  Au      9.201790      7.085741     11.362423
  Au     11.615465      8.388936     11.834783
  Au      7.089754      5.880543      9.966761
  Au      7.050646      8.786548     10.069979
  Au      6.212107      7.345886      7.768228
  Au     10.436123      9.273156      7.482839
  Au     10.353904      6.381311      7.010605
  Au      8.309953      8.163280      6.176900
  Au     11.510067      7.136870      9.394493
  Au      9.657494      5.017887      9.371109
  Fe      8.720656      7.505745      8.654244
13
Coordinates from ORCA-job pbe E -2893.386787675005
  Au      9.567540      9.710594     10.162485
  Au     12.244211      9.811096      9.450136
  Au      9.224456      7.110366     11.351901
  Au     11.570633      8.370966     11.815924
  Au      7.088908      5.887558      9.972131
  Au      7.070373      8.803786     10.101455
  Au      6.233192      7.341225      7.773968
  Au     10.454066      9.274613      7.503678
  Au     10.373202      6.387055      6.991188
  Au      8.306229      8.158200      6.176572
  Au     11.472265      7.141224      9.393326
  Au      9.675559      5.051912      9.379599
  Fe      8.736051      7.511379      8.662380
13
Coordinates from ORCA-job pbe E -2893.388030811242
  Au      9.576836      9.706916     10.158742
  Au     12.271059      9.817597      9.450933
  Au      9.215885      7.111988     11.359587
  Au     11.581482      8.385596     11.856530
  Au      7.075041      5.887507      9.968646
  Au      7.049067      8.797193     10.121171
  Au      6.244842      7.330504      7.773476
  Au     10.453462      9.270739      7.483002
  Au     10.372401      6.383874      6.955384
  Au      8.295886      8.151983      6.173120
  Au     11.474061      7.143146      9.400522
  Au      9.665738      5.061067      9.368313
  Fe      8.740926      7.511864      8.665319
13
Coordinates from ORCA-job pbe E -2893.388583074315
  Au      9.588495      9.693721     10.153883
  Au     12.274939      9.804421      9.445205
  Au      9.197200      7.114205     11.368328
  Au     11.591296      8.404477     11.867880
  Au      7.069845      5.886742      9.977711
  Au      7.034067      8.786383     10.147296
  Au      6.258549      7.323603      7.769203
  Au     10.455126      9.256651      7.468704
  Au     10.382239      6.394368      6.938165
  Au      8.303155      8.150274      6.172449
  Au     11.462972      7.160986      9.404568
  Au      9.646995      5.068987      9.346805
  Fe      8.751809      7.515156      8.674546
13
Coordinates from ORCA-job pbe E -2893.388911222686
  Au      9.584061      9.678318     10.141894
  Au     12.285641      9.803777      9.441672
  Au      9.187574      7.125868     11.384761
  Au     11.581876      8.407790     11.887128
  Au      7.060207      5.891983      9.992004
  Au      7.034617      8.772754     10.179283
  Au      6.276162      7.313743      7.773804
  Au     10.467915      9.253713      7.442650
  Au     10.394980      6.405156      6.920971
  Au      8.304994      8.141511      6.165248
  Au     11.437729      7.165240      9.401989
  Au      9.632562      5.080236      9.318704
  Fe      8.768367      7.519882      8.684635
13
Coordinates from ORCA-job pbe E -2893.389114634920
  Au      9.587284      9.681895     10.133455
  Au     12.280569      9.804400      9.442934
  Au      9.182300      7.128239     11.396232
  Au     11.574381      8.409379     11.877967
  Au      7.057018      5.896167     10.005211
  Au      7.034647      8.757306     10.190019
  Au      6.286898      7.313177      7.777649
  Au     10.481634      9.259971      7.435965
  Au     10.398476      6.406921      6.915956
  Au      8.306260      8.137450      6.161066
  Au     11.431927      7.171507      9.407929
  Au      9.616647      5.070560      9.300131
  Fe      8.778645      7.523000      8.690230
13
Coordinates from ORCA-job pbe E -2893.389270278596
  Au      9.581143      9.694715     10.124670
  Au     12.275187      9.806053      9.440680
  Au      9.176562      7.124145     11.404160
  Au     11.570029      8.407517     11.862300
  Au      7.059158      5.892123     10.014823
  Au      7.041614      8.749765     10.194581
  Au      6.294646      7.313734      7.781558
  Au     10.487299      9.264891      7.432749
  Au     10.402040      6.412275      6.923075
  Au      8.315028      8.136861      6.161878
  Au     11.423752      7.164544      9.411188
  Au      9.603257      5.066320      9.287916
  Fe      8.786969      7.527031      8.695165
13
Coordinates from ORCA-job pbe E -2893.389373677794
  Au      9.571735      9.710246     10.113391
  Au     12.272837      9.804084      9.442432
  Au      9.175514      7.123802     11.407294
  Au     11.562298      8.406184     11.850573
  Au      7.057617      5.886979     10.019627
  Au      7.049120      8.747463     10.199035
  Au      6.305261      7.310746      7.788472
  Au     10.487538      9.270233      7.429469
  Au     10.406464      6.416670      6.925881
  Au      8.317679      8.137660      6.165047
  Au     11.422696      7.153452      9.416006
  Au      9.591721      5.059750      9.278061
  Fe      8.796204      7.532704      8.699455
13
Coordinates from ORCA-job pbe E -2893.389454479030
  Au      9.566276      9.730471     10.101049
  Au     12.270883      9.797106      9.439979
  Au      9.171614      7.124218     11.405416
  Au     11.555028      8.409295     11.845292
  Au      7.056389      5.880718     10.024955
  Au      7.051212      8.743972     10.205759
  Au      6.317138      7.304604      7.795235
  Au     10.487607      9.277553      7.431424
  Au     10.413143      6.420141      6.927073
  Au      8.317196      8.139488      6.168285
  Au     11.421066      7.134980      9.418502
  Au      9.581433      5.057522      9.267086
  Fe      8.807703      7.539905      8.704689
13
Coordinates from ORCA-job pbe E -2893.389509967963
  Au      9.560179      9.744443     10.093516
  Au     12.272379      9.786538      9.443297
  Au      9.170576      7.127843     11.397283
  Au     11.548959      8.410399     11.844664
  Au      7.054844      5.876664     10.029325
  Au      7.050857      8.745831     10.210234
  Au      6.323171      7.295358      7.801416
  Au     10.482204      9.279641      7.428956
  Au     10.417027      6.424194      6.924096
  Au      8.315800      8.141057      6.170439
  Au     11.429449      7.124124      9.423965
  Au      9.574494      5.056299      9.259055
  Fe      8.816749      7.547581      8.708499
13
Coordinates from ORCA-job pbe E -2893.389536432309
  Au      9.558340      9.748077     10.095682
  Au     12.271347      9.780646      9.440344
  Au      9.169345      7.131751     11.393857
  Au     11.550562      8.410774     11.848369
  Au      7.053208      5.876198     10.031259
  Au      7.046568      8.747117     10.209615
  Au      6.326210      7.291724      7.798936
  Au     10.480552      9.279691      7.430143
  Au     10.418931      6.426343      6.923735
  Au      8.311178      8.140613      6.172392
  Au     11.436082      7.119406      9.423795
  Au      9.573729      5.056240      9.255967
  Fe      8.820634      7.551393      8.710649
13
Coordinates from ORCA-job pbe E -2893.389555299091
  Au      9.559104      9.749252     10.102181
  Au     12.268065      9.775603      9.439157
  Au      9.169912      7.136580     11.390079
  Au     11.553302      8.406969     11.851460
  Au      7.053044      5.879617     10.032024
  Au      7.039873      8.748388     10.204300
  Au      6.325671      7.284722      7.801474
  Au     10.478005      9.280158      7.429561
  Au     10.419047      6.427521      6.923538
  Au      8.311089      8.139757      6.171277
  Au     11.440933      7.115822      9.423261
  Au      9.574465      5.059852      9.254249
  Fe      8.824174      7.555732      8.712182
13
Coordinates from ORCA-job pbe E -2893.389569998516
  Au      9.558051      9.745627     10.109084
  Au     12.264387      9.776166      9.439301
  Au      9.169697      7.139836     11.390467
  Au     11.558196      8.401665     11.851733
  Au      7.055946      5.882006     10.034231
  Au      7.037194      8.750540     10.197344
  Au      6.324714      7.283410      7.798383
  Au     10.477114      9.280716      7.429432
  Au     10.417830      6.427532      6.924150
  Au      8.309863      8.137823      6.170532
  Au     11.444114      7.115606      9.421365
  Au      9.574493      5.061364      9.255858
  Fe      8.825085      7.557681      8.712862
13
Coordinates from ORCA-job pbe E -2893.389581513263
  Au      9.556671      9.742319     10.116330
  Au     12.259009      9.778438      9.439638
  Au      9.170107      7.142027     11.394418
  Au     11.564892      8.394756     11.849694
  Au      7.057352      5.885731     10.035927
  Au      7.035365      8.753579     10.187517
  Au      6.324818      7.281065      7.796173
  Au     10.474665      9.282780      7.429926
  Au     10.415815      6.427675      6.924717
  Au      8.311049      8.135505      6.169537
  Au     11.445249      7.114390      9.419114
  Au      9.575050      5.061461      9.257834
  Fe      8.826645      7.560249      8.713917
13
Coordinates from ORCA-job pbe E -2893.389585568190
  Au      9.556589      9.742851     10.118594
  Au     12.258064      9.778960      9.441203
  Au      9.169731      7.142311     11.396454
  Au     11.566578      8.391078     11.848054
  Au      7.059029      5.887270     10.037572
  Au      7.035010      8.755107     10.182996
  Au      6.326297      7.278485      7.795619
  Au     10.472576      9.285088      7.430132
  Au     10.414863      6.427460      6.924326
  Au      8.310952      8.133985      6.168691
  Au     11.444457      7.113314      9.418056
  Au      9.574364      5.062136      9.258265
  Fe      8.828176      7.561928      8.714780
13
Coordinates from ORCA-job pbe E -2893.389588222881
  Au      9.556869      9.743445     10.120029
  Au     12.258427      9.779123      9.441125
  Au      9.169543      7.140800     11.398054
  Au     11.567177      8.390071     11.847586
  Au      7.059100      5.888333     10.038451
  Au      7.035307      8.757085     10.180111
  Au      6.327546      7.275732      7.795215
  Au     10.470304      9.286937      7.431522
  Au     10.413619      6.427145      6.923494
  Au      8.311719      8.133415      6.167843
  Au     11.444006      7.113065      9.417230
  Au      9.573914      5.061825      9.258438
  Fe      8.829154      7.562997      8.715647
13
Coordinates from ORCA-job pbe E -2893.389590241744
  Au      9.558587      9.743912     10.121544
  Au     12.260167      9.778829      9.441232
  Au      9.169736      7.138918     11.398466
  Au     11.565668      8.390346     11.847586
  Au      7.058864      5.889152     10.039333
  Au      7.035713      8.758753     10.178539
  Au      6.329171      7.273416      7.794180
  Au     10.467896      9.288099      7.432794
  Au     10.412217      6.426545      6.922863
  Au      8.311625      8.132818      6.167306
  Au     11.443480      7.113897      9.416072
  Au      9.573938      5.061843      9.258370
  Fe      8.829625      7.563444      8.716458
