13
E=  -1362.88518026;c=0;m=6
Au      8.196204979310600     12.426966710439110      9.208427181369540
Au      5.994456243173660     11.618748229110640      7.842616884375740
Au     10.206987865504381     10.798369593375170     10.130470122042230
Au      8.880739948657070     10.233544120190439      7.535604906747340
Au      4.325160971762800      9.838899798132999      6.666734393361770
Au      7.385751085699270      9.875605853487830     10.168020180488989
Au      6.925977433082020      7.289847935894430      9.556630603202050
Au      5.213119650184900      7.286403099624200      6.842702311884110
Au      8.426622149810560      7.646846279377450      6.926662276643430
Au      9.826798140731960      8.180835886603459      9.565831250199849
Au      6.935398425042660      5.302674701946420      7.525112688334500
Au      9.288669862859100      5.612268770119560      8.904877090786110
Mn      6.495283744180990      9.185956761698300      7.799373520564410
