16
E=  -1689.95010415;c=0;m=5
Au      9.012003096853279      9.138010588562070      7.337490231422660
Au      6.950851789929570     10.999199727030140      8.044683450101051
Au      8.699691776406111     10.197041610651199      9.982602957501010
Au      5.962820884487680      9.273325843108720     10.145950634287621
Au     10.117415997343180      7.808788935083060      9.686334356440300
Au      8.208376166464131      5.685489798357200      9.804826500139930
Au      8.096653369806560      8.015646047613020     11.620106852941500
Au      9.830286723812311      6.304798757798030      7.386603345822030
Au      5.809049584732080      6.579322611939790     11.133500290546531
Au      8.046474294043710      7.120566178356360      5.413146907793450
Au      4.532902588657330      9.649803929917841      7.671416659669640
Au      6.576111218344810      9.433575152156299      5.761886064008670
Au      5.578500670464570      5.042819208909290      8.742558806444380
Au      5.328412323182760      7.007561284129250      6.613101058451740
Au      4.024488548810840      7.397466015038510      9.155329650344170
Mn      7.422154316661080      5.965149841349300      7.461385114085340
