11
E=  -1145.51810391;c=0;m=6
Au      8.535949698541270      7.032856638991540      6.607224729535790
Au     10.244512761735360      7.250926547725680      8.728840704535310
Au      4.953775457190460      7.144535728077020      9.214834215671980
Au      7.588037585584600      7.423055795247430      9.406536398475630
Au      8.802618574291349      4.913375228795190      8.686320276696449
Au      5.254119284383710      3.938268609328010      6.100394694475620
Au      4.062924921027790      5.552372291814970      4.223822474006980
Au      6.480426821244460      6.468068994948440      5.109397144700600
Au      4.039700031332250      6.448040837889880      6.820319721074380
Au      6.860311250322010      3.204963034166100      8.084430160740810
Mn      6.446264014346920      5.705455873015980      7.709546950086490
