16
E=  -1708.41520389;c=0;m=6
Au      7.121857741622790      9.496374969260270      5.899261052272720
Au      9.130366575318369     10.145517127227430      7.835302669103480
Au      8.039809283282599      8.501978259592139     10.002144790031180
Au      6.505870875175650     10.636529292769930      8.478640471543150
Au      8.680803513095199      5.699017499540430      9.399755919905520
Au      9.729162409598020      5.686920179416910      6.656983863928120
Au      9.835672528553451      8.407848379619860      5.733822574629300
Au     10.432575452210409      7.758005806940340      8.552851088120700
Au      4.818930810897760      8.617686257902200      7.557655429639920
Au      5.978534343008050      6.478915181790510      9.230155914938759
Au      7.062623217731500      4.934240477909890      7.116689967363860
Au      4.477057932042650      5.916633381604770      6.882335757930820
Au      5.114399275915180      7.819989897053340      4.897691017679680
Au      5.274983160498430      8.931818256649541     10.329959183478110
Au      7.666179742427220      6.724078230853760      4.934760692907860
Fe      7.972452388622710      7.520761001868630      7.511628156526600
