11
E=  -1145.92496672;c=0;m=4
Au      7.800381649827370      7.022446996123460      4.324206704911860
Au      6.230880359277060      6.145870250689700      6.617295795216150
Au      9.785609199982440      8.142084819169041      5.827266283338410
Au      7.643949403214560      9.828225760190840      4.728775800545720
Au      5.103760277206960      6.673110016186720      4.142164883992950
Au      5.147925928806860      8.864695100302811      5.881441722959120
Au      7.656907476329120      9.373338543622600     10.403625855234001
Au      9.428343065933250      8.835062799843509      8.378208465612040
Au      7.089594268805550      7.057761290087850      8.959832352555770
Au      5.831023321466810      9.690477164093251      8.352025068582231
Mn      7.477632749150070      8.477757839690240      6.859700167051770
