11
E=  -1145.92415142;c=0;m=4
Au      4.626741450973070      6.486215755116810      5.346890595918610
Au      8.296450330929810      9.097224040545210      6.566655916699500
Au      6.736615063887600     11.237325698931111      5.713925548569640
Au      5.535355095839650      8.935789484942591      5.038759313824130
Au      8.895168333952940      6.536368594189410      6.152710054357480
Au      6.889643131112080      4.755238012973160      6.320450158310240
Au      7.295255005206440     10.879666781132469      8.466955002793730
Au      5.240349227991800      6.093426818296780      8.449435786895330
Au      6.317590200719990      8.436010007231619      8.971425793474459
Au      4.246548590446320      4.147425404208030      6.762209220013190
Mn      6.506233688940270      7.368952452432760      6.723131189143750
