11
Coordinates from ORCA-job pbe E -2509.016674304136
  Au      7.800382      7.022447      4.324207
  Au      6.230880      6.145870      6.617296
  Au      9.785609      8.142085      5.827266
  Au      7.643949      9.828226      4.728776
  Au      5.103760      6.673110      4.142165
  Au      5.147926      8.864695      5.881442
  Au      7.656907      9.373339     10.403626
  Au      9.428343      8.835063      8.378208
  Au      7.089594      7.057761      8.959832
  Au      5.831023      9.690477      8.352025
  Mn      7.477633      8.477758      6.859700
11
Coordinates from ORCA-job pbe E -2509.019348229457
  Au      7.785513      7.024131      4.338411
  Au      6.223754      6.150156      6.624130
  Au      9.806708      8.116609      5.792289
  Au      7.616968      9.845141      4.707882
  Au      5.146380      6.674938      4.144567
  Au      5.126793      8.861780      5.856433
  Au      7.679475      9.368067     10.407031
  Au      9.441143      8.843500      8.425321
  Au      7.080783      7.035902      8.960911
  Au      5.816327      9.712672      8.362680
  Mn      7.472164      8.477934      6.854889
11
Coordinates from ORCA-job pbe E -2509.020718402679
  Au      7.797486      7.037447      4.364493
  Au      6.220673      6.138377      6.638873
  Au      9.840436      8.114038      5.792258
  Au      7.586094      9.847914      4.682183
  Au      5.131336      6.667212      4.123417
  Au      5.111729      8.894041      5.851169
  Au      7.670185      9.360171     10.387274
  Au      9.474826      8.833476      8.441663
  Au      7.087929      7.024914      8.977148
  Au      5.800159      9.717517      8.363786
  Mn      7.475155      8.475724      6.852279
11
Coordinates from ORCA-job pbe E -2509.022043660275
  Au      7.792612      7.064372      4.422458
  Au      6.210647      6.137415      6.645151
  Au      9.872590      8.118938      5.810240
  Au      7.537136      9.843770      4.651772
  Au      5.162567      6.682819      4.146281
  Au      5.102273      8.923220      5.843572
  Au      7.663120      9.354240     10.337138
  Au      9.516133      8.797006      8.439276
  Au      7.092216      7.008441      8.982331
  Au      5.772138      9.710982      8.351650
  Mn      7.474576      8.469628      6.844673
11
Coordinates from ORCA-job pbe E -2509.022508509397
  Au      7.807467      7.087033      4.469272
  Au      6.194106      6.130467      6.653856
  Au      9.897120      8.130347      5.837904
  Au      7.500560      9.854382      4.643851
  Au      5.164880      6.689953      4.147905
  Au      5.093611      8.934745      5.832919
  Au      7.691572      9.381824     10.289453
  Au      9.533953      8.753723      8.444783
  Au      7.092011      6.992090      8.971797
  Au      5.747560      9.694356      8.341450
  Mn      7.473168      8.461910      6.841353
11
Coordinates from ORCA-job pbe E -2509.022736623019
  Au      7.813245      7.089135      4.485992
  Au      6.172995      6.125711      6.652308
  Au      9.911081      8.131748      5.839165
  Au      7.478340      9.876118      4.649150
  Au      5.173069      6.687926      4.143038
  Au      5.090029      8.929997      5.831806
  Au      7.685306      9.395349     10.278043
  Au      9.545186      8.723555      8.443005
  Au      7.101468      7.004402      8.976833
  Au      5.747513      9.688438      8.337667
  Mn      7.477776      8.458451      6.837536
11
Coordinates from ORCA-job pbe E -2509.022935297548
  Au      7.818781      7.089890      4.495747
  Au      6.152774      6.133465      6.667566
  Au      9.919654      8.133084      5.831294
  Au      7.464169      9.895225      4.655606
  Au      5.182639      6.680250      4.137826
  Au      5.086786      8.914219      5.831563
  Au      7.680649      9.394331     10.281082
  Au      9.546015      8.701220      8.444604
  Au      7.107457      7.016826      8.966000
  Au      5.753804      9.691091      8.329926
  Mn      7.483281      8.461230      6.833328
11
Coordinates from ORCA-job pbe E -2509.023077442275
  Au      7.824122      7.096706      4.501144
  Au      6.123171      6.141795      6.673498
  Au      9.927087      8.134221      5.827243
  Au      7.446552      9.913620      4.671584
  Au      5.198290      6.671173      4.118864
  Au      5.081133      8.884598      5.832190
  Au      7.700423      9.407625     10.284693
  Au      9.538815      8.674125      8.450920
  Au      7.109674      7.032164      8.964358
  Au      5.759538      9.692501      8.320399
  Mn      7.487204      8.462303      6.829652
11
Coordinates from ORCA-job pbe E -2509.023162391337
  Au      7.824412      7.106166      4.501984
  Au      6.109334      6.153801      6.679153
  Au      9.934892      8.134356      5.826331
  Au      7.438622      9.918976      4.679194
  Au      5.201715      6.664554      4.111946
  Au      5.079499      8.864115      5.833231
  Au      7.699791      9.416640     10.286715
  Au      9.539114      8.660262      8.451499
  Au      7.108966      7.031916      8.960159
  Au      5.767011      9.695074      8.317806
  Mn      7.492652      8.464970      6.826526
11
Coordinates from ORCA-job pbe E -2509.023241972227
  Au      7.823428      7.120471      4.503390
  Au      6.094434      6.171113      6.683422
  Au      9.946092      8.133413      5.829578
  Au      7.426639      9.926154      4.687122
  Au      5.205890      6.649028      4.103969
  Au      5.077940      8.843837      5.838090
  Au      7.702514      9.415107     10.275024
  Au      9.539159      8.647276      8.455766
  Au      7.103731      7.034747      8.961754
  Au      5.776244      9.698933      8.313746
  Mn      7.499937      8.470751      6.822683
11
Coordinates from ORCA-job pbe E -2509.023296895157
  Au      7.821253      7.131483      4.501207
  Au      6.089352      6.178914      6.680106
  Au      9.951848      8.127065      5.833689
  Au      7.416564      9.931981      4.690413
  Au      5.208668      6.635898      4.096831
  Au      5.077163      8.835713      5.843168
  Au      7.706356      9.420543     10.276256
  Au      9.546661      8.641208      8.456315
  Au      7.095626      7.031349      8.966806
  Au      5.777279      9.702403      8.309522
  Mn      7.505239      8.474273      6.820232
11
Coordinates from ORCA-job pbe E -2509.023346760828
  Au      7.819837      7.137265      4.497342
  Au      6.094615      6.178279      6.676401
  Au      9.951962      8.116076      5.837933
  Au      7.412178      9.938291      4.691258
  Au      5.207102      6.631681      4.096462
  Au      5.076897      8.833234      5.843805
  Au      7.706561      9.421820     10.271361
  Au      9.550688      8.643647      8.458057
  Au      7.089702      7.031779      8.970322
  Au      5.777706      9.702366      8.311402
  Mn      7.508759      8.476392      6.820200
11
Coordinates from ORCA-job pbe E -2509.023466882585
  Au      7.814821      7.155853      4.485987
  Au      6.107782      6.177780      6.669725
  Au      9.953363      8.077754      5.850547
  Au      7.393219      9.961069      4.695797
  Au      5.205865      6.620830      4.094866
  Au      5.077541      8.819935      5.848007
  Au      7.707951      9.425608     10.261523
  Au      9.561626      8.647141      8.464119
  Au      7.075069      7.038486      8.974274
  Au      5.776987      9.701733      8.309588
  Mn      7.521783      8.484642      6.820111
11
Coordinates from ORCA-job pbe E -2509.023600440185
  Au      7.809191      7.182961      4.475922
  Au      6.120076      6.176314      6.664556
  Au      9.957918      8.025336      5.866813
  Au      7.360942      9.990421      4.705437
  Au      5.206641      6.612033      4.090175
  Au      5.078766      8.798051      5.851254
  Au      7.709938      9.436639     10.250231
  Au      9.575102      8.644121      8.472538
  Au      7.063070      7.050674      8.973859
  Au      5.774369      9.699604      8.303553
  Mn      7.539994      8.494677      6.820207
11
Coordinates from ORCA-job pbe E -2509.023732761439
  Au      7.802785      7.209565      4.467167
  Au      6.133564      6.174723      6.662495
  Au      9.963180      7.971726      5.885589
  Au      7.326344     10.014198      4.713329
  Au      5.207384      6.607238      4.087278
  Au      5.080399      8.778768      5.853367
  Au      7.710879      9.447586     10.241228
  Au      9.586499      8.640384      8.481235
  Au      7.058388      7.060652      8.964106
  Au      5.768820      9.699045      8.295476
  Mn      7.557766      8.506948      6.823273
11
Coordinates from ORCA-job pbe E -2509.023818109560
  Au      7.801114      7.236963      4.464770
  Au      6.133479      6.172347      6.657859
  Au      9.973313      7.924106      5.898604
  Au      7.286185     10.041204      4.734549
  Au      5.212089      6.603985      4.075989
  Au      5.078861      8.751096      5.852926
  Au      7.713771      9.470941     10.233229
  Au      9.592935      8.619512      8.489104
  Au      7.064125      7.080837      8.960489
  Au      5.766639      9.697318      8.283825
  Mn      7.573497      8.512519      6.823199
11
Coordinates from ORCA-job pbe E -2509.023874721707
  Au      7.796987      7.257613      4.459535
  Au      6.142478      6.176492      6.657334
  Au      9.977829      7.890981      5.912582
  Au      7.264848     10.048112      4.737616
  Au      5.213464      6.597119      4.075715
  Au      5.076018      8.741301      5.856078
  Au      7.711940      9.477381     10.227776
  Au      9.595932      8.612825      8.495483
  Au      7.070107      7.079643      8.946269
  Au      5.763974      9.704760      8.277798
  Mn      7.582431      8.524606      6.828357
11
Coordinates from ORCA-job pbe E -2509.023915348776
  Au      7.795943      7.267060      4.457072
  Au      6.146018      6.177392      6.654489
  Au      9.979459      7.879555      5.916776
  Au      7.258807     10.053281      4.741622
  Au      5.215326      6.591313      4.074320
  Au      5.071299      8.737792      5.857506
  Au      7.711397      9.482404     10.224025
  Au      9.595648      8.605603      8.497684
  Au      7.074262      7.080234      8.947070
  Au      5.764725      9.708921      8.275358
  Mn      7.583125      8.527276      6.828621
11
Coordinates from ORCA-job pbe E -2509.023981773253
  Au      7.793924      7.289550      4.452270
  Au      6.162783      6.179029      6.648279
  Au      9.979158      7.851043      5.927056
  Au      7.249606     10.061323      4.745188
  Au      5.217331      6.581754      4.077886
  Au      5.058584      8.735275      5.858343
  Au      7.705543      9.489366     10.215310
  Au      9.594208      8.591790      8.502411
  Au      7.090331      7.076252      8.949286
  Au      5.764809      9.720850      8.268787
  Mn      7.579732      8.534598      6.829728
11
Coordinates from ORCA-job pbe E -2509.023999058995
  Au      7.792004      7.296081      4.449080
  Au      6.167713      6.181341      6.647647
  Au      9.977193      7.838236      5.931909
  Au      7.244788     10.067535      4.748148
  Au      5.218881      6.579207      4.075955
  Au      5.057106      8.729963      5.859076
  Au      7.704698      9.492389     10.212395
  Au      9.594485      8.588784      8.503910
  Au      7.094995      7.075421      8.950741
  Au      5.765298      9.723634      8.265857
  Mn      7.578847      8.538239      6.829825
11
Coordinates from ORCA-job pbe E -2509.024021907914
  Au      7.790227      7.300837      4.446021
  Au      6.177618      6.181852      6.648136
  Au      9.971351      7.821726      5.939622
  Au      7.240634     10.075243      4.749418
  Au      5.218012      6.580260      4.076503
  Au      5.057805      8.728075      5.856498
  Au      7.702064      9.495187     10.209181
  Au      9.595378      8.587601      8.505396
  Au      7.105613      7.072550      8.951788
  Au      5.763280      9.724576      8.262432
  Mn      7.574025      8.542924      6.829550
11
Coordinates from ORCA-job pbe E -2509.024029183654
  Au      7.789706      7.302099      4.444685
  Au      6.179023      6.182519      6.648845
  Au      9.968285      7.815732      5.942277
  Au      7.239419     10.079563      4.750558
  Au      5.216561      6.579860      4.076853
  Au      5.061038      8.724963      5.854995
  Au      7.701789      9.495842     10.208757
  Au      9.596689      8.588861      8.506452
  Au      7.107501      7.072473      8.950535
  Au      5.762406      9.723395      8.261996
  Mn      7.573590      8.545524      6.828590
11
Coordinates from ORCA-job pbe E -2509.024033828661
  Au      7.789040      7.300592      4.444124
  Au      6.179191      6.180980      6.649490
  Au      9.966146      7.815160      5.943977
  Au      7.241054     10.080828      4.749816
  Au      5.215160      6.580016      4.077730
  Au      5.063583      8.726327      5.853329
  Au      7.701935      9.495941     10.209291
  Au      9.597411      8.590154      8.507009
  Au      7.109300      7.073137      8.948543
  Au      5.760657      9.720846      8.263707
  Mn      7.572532      8.546850      6.827527
11
Coordinates from ORCA-job pbe E -2509.024038147604
  Au      7.787847      7.302301      4.443393
  Au      6.179225      6.179960      6.649254
  Au      9.964334      7.812042      5.945558
  Au      7.242103     10.082803      4.749438
  Au      5.213912      6.578130      4.078741
  Au      5.065573      8.725820      5.852742
  Au      7.701869      9.496683     10.209508
  Au      9.598628      8.590298      8.508725
  Au      7.110448      7.074870      8.945906
  Au      5.758738      9.718516      8.265165
  Mn      7.573330      8.549409      6.826113
11
Coordinates from ORCA-job pbe E -2509.024041274537
  Au      7.786307      7.302310      4.442791
  Au      6.179003      6.179124      6.648837
  Au      9.962898      7.812385      5.946606
  Au      7.246008     10.082208      4.747186
  Au      5.212757      6.577060      4.079410
  Au      5.066149      8.726822      5.852698
  Au      7.701897      9.496929     10.210754
  Au      9.598627      8.590443      8.509793
  Au      7.112256      7.076368      8.944073
  Au      5.756839      9.715659      8.267775
  Mn      7.573268      8.551525      6.824621
11
Coordinates from ORCA-job pbe E -2509.024042990873
  Au      7.784950      7.304099      4.442509
  Au      6.180404      6.179288      6.648017
  Au      9.962273      7.809554      5.947548
  Au      7.246775     10.082067      4.745553
  Au      5.212269      6.576416      4.079414
  Au      5.065763      8.726865      5.853271
  Au      7.701440      9.497797     10.211052
  Au      9.598706      8.589900      8.511004
  Au      7.113842      7.077202      8.943384
  Au      5.755417      9.714002      8.268701
  Mn      7.574168      8.553640      6.824090
11
Coordinates from ORCA-job pbe E -2509.024044197371
  Au      7.784371      7.303223      4.442847
  Au      6.181045      6.180284      6.647551
  Au      9.961999      7.809880      5.947776
  Au      7.248398     10.080460      4.742983
  Au      5.211680      6.577112      4.079192
  Au      5.065291      8.727785      5.853507
  Au      7.701249      9.497611     10.212196
  Au      9.597971      8.590285      8.511081
  Au      7.115066      7.077222      8.943583
  Au      5.754615      9.712079      8.270072
  Mn      7.574323      8.554890      6.823757
11
Coordinates from ORCA-job pbe E -2509.024045281586
  Au      7.784069      7.302346      4.443493
  Au      6.182142      6.181766      6.647033
  Au      9.961891      7.808561      5.948277
  Au      7.248241     10.079390      4.740316
  Au      5.211124      6.578112      4.078771
  Au      5.065098      8.728768      5.853425
  Au      7.700976      9.497693     10.213228
  Au      9.597351      8.590711      8.511293
  Au      7.116480      7.077112      8.943767
  Au      5.753729      9.709748      8.271275
  Mn      7.574908      8.556626      6.823666
