17
E=  -1798.54179972;c=0;m=6
Au      7.712378256446360      8.036524550016919     10.465950751320030
Au      9.058961059963289      7.650736019977960      8.021640448420539
Au      9.256735450135951     10.110445753187120      6.511840977143900
Au      7.337389131423850      9.968829728800589      4.469925630305910
Au      7.137091025207320      5.789002938093290      6.324540627586480
Au      6.416784686542800      7.359298239729230      4.004608958559360
Au      8.923480185879351      7.630648209401690      5.238163947076960
Au      4.918087715832610      5.330021524089100      7.999566907441550
Au      5.062713806604730      7.080798979771800     10.214742224073950
Au      5.595683180166000      9.765489486740840      9.438201778177479
Au      3.830908856097360     10.795192777837880      7.535119232831860
Au      3.794399000256600      8.020794294804681      7.848328118397220
Au      4.796604189302340      9.242188272354570      5.432314419600320
Au      4.277047796226480      6.488602900500860      5.525856432986270
Au      6.559168954801370     10.949391052771141      6.988518463695870
Au      8.323841996616000     10.408527808452391      9.098648730938450
Mn      7.030661078497610      6.398500333469970      8.734620121443870
