15
E=  -1599.75314342;c=0;m=5
Au      6.787341926131300      5.903552453191830      7.377510191921160
Au      9.156658995146749      5.795480915741530      5.726734881039440
Au      7.033494934183880      7.391682504249140      4.816461948197200
Au      4.946572069367670      8.009443193182831      6.467192311152930
Au      9.542643470108141      8.611858856852519      4.973583459697770
Au     11.207718958263859      7.387922350512210      7.000323886930790
Au      9.480295821074000      5.593429067877780      8.522208023489240
Au      7.592675466825560      7.193920524913200      9.946315967263120
Au      5.375422377564550      9.904468545342420      8.488435951710890
Au      7.296166873287990      9.845304804178310      6.381869902313680
Au     10.214402056551670      8.195476700307390      9.582751328135720
Au      8.025899585757220      9.948225735632770      9.205755412552509
Au      4.966368576473950      7.149698350512210      9.143568841727429
Au     10.130656376151730     10.068643966557220      7.321562036424320
Fe      8.612975503111720      7.842378410948730      7.427136657443760
