15
E=  -1599.74066264;c=0;m=5
Au      6.346093276885020      8.980895089691410      8.929025862634539
Au      8.722907300933990      5.945627725718630      8.939561631167249
Au      9.105927142546429      8.736084104800170      9.320088883956490
Au      8.390560253934320     10.834293863613819      5.440406195595860
Au      5.962082838034500      6.195659793388350      8.586715113451350
Au     10.502298068767780     10.123681495325460      7.210278344832540
Au     10.786325779859631      7.316045847586170      7.530223681194500
Au      6.807900020757990      8.564245044790770      4.873645125628150
Au      8.066955296974831     11.125152362882581      8.285743512279501
Au      9.058072821387549      5.644858318223060      6.000596984051240
Au      6.293362089961930      5.897752911983510      5.673230003868100
Au      5.814518005371860     10.666886345715760      6.620795223524810
Au      4.761233480038800      8.037977513150720      6.769855052968120
Au      9.577712461719811      8.308248433313480      5.162593887223560
Fe      7.757564372825560      7.542985539816130      7.162062047624030
