15
Coordinates from ORCA-job pbe E -3165.060821062420
  Au      6.346093      8.980895      8.929026
  Au      8.722907      5.945628      8.939562
  Au      9.105927      8.736084      9.320089
  Au      8.390560     10.834294      5.440406
  Au      5.962083      6.195660      8.586715
  Au     10.502298     10.123681      7.210278
  Au     10.786326      7.316046      7.530224
  Au      6.807900      8.564245      4.873645
  Au      8.066955     11.125152      8.285744
  Au      9.058073      5.644858      6.000597
  Au      6.293362      5.897753      5.673230
  Au      5.814518     10.666886      6.620795
  Au      4.761233      8.037978      6.769855
  Au      9.577712      8.308248      5.162594
  Fe      7.757564      7.542986      7.162062
15
Coordinates from ORCA-job pbe E -3165.063708079317
  Au      6.370865      8.985327      8.922084
  Au      8.714622      5.948641      8.935680
  Au      9.078130      8.738299      9.298924
  Au      8.382979     10.809923      5.460771
  Au      5.984918      6.206257      8.577563
  Au     10.468923     10.107353      7.207887
  Au     10.763759      7.326947      7.526335
  Au      6.830738      8.570527      4.884886
  Au      8.063242     11.097201      8.269319
  Au      9.049052      5.647789      6.001930
  Au      6.313950      5.910211      5.684986
  Au      5.838312     10.650294      6.625469
  Au      4.786757      8.049093      6.771749
  Au      9.546541      8.314877      5.176356
  Fe      7.760724      7.557655      7.160880
15
Coordinates from ORCA-job pbe E -3165.064767570494
  Au      6.379623      8.993692      8.927998
  Au      8.709972      5.930667      8.933281
  Au      9.058110      8.733000      9.288493
  Au      8.378386     10.821144      5.475567
  Au      6.006874      6.200950      8.567394
  Au     10.462778     10.098717      7.207742
  Au     10.755154      7.327267      7.525117
  Au      6.841067      8.578130      4.880067
  Au      8.062446     11.105694      8.251382
  Au      9.042992      5.630405      6.006501
  Au      6.333093      5.906690      5.700925
  Au      5.834999     10.652141      6.625050
  Au      4.796485      8.057172      6.772101
  Au      9.525990      8.312562      5.183294
  Fe      7.765545      7.572162      7.159911
15
Coordinates from ORCA-job pbe E -3165.065732465919
  Au      6.376215      9.005978      8.936112
  Au      8.717510      5.907509      8.926596
  Au      9.043101      8.725630      9.279774
  Au      8.374319     10.832996      5.487314
  Au      6.022316      6.196985      8.553971
  Au     10.464095     10.085049      7.209353
  Au     10.749930      7.326535      7.524227
  Au      6.840145      8.588184      4.869526
  Au      8.061828     11.115038      8.236439
  Au      9.047929      5.609349      6.018795
  Au      6.344692      5.905207      5.718363
  Au      5.821714     10.649864      6.623994
  Au      4.805680      8.069000      6.771979
  Au      9.510964      8.307586      5.190161
  Fe      7.773077      7.595483      7.158219
15
Coordinates from ORCA-job pbe E -3165.066523975403
  Au      6.363896      9.017249      8.946059
  Au      8.728406      5.886315      8.914161
  Au      9.032877      8.717282      9.277946
  Au      8.371298     10.838680      5.491012
  Au      6.034152      6.197231      8.543849
  Au     10.469369     10.076158      7.211327
  Au     10.749211      7.322587      7.524208
  Au      6.831551      8.596300      4.855339
  Au      8.060512     11.119887      8.230848
  Au      9.054980      5.591645      6.036768
  Au      6.353341      5.907189      5.731129
  Au      5.809267     10.650521      6.622510
  Au      4.812294      8.075516      6.772028
  Au      9.500976      8.300182      5.191585
  Fe      7.781381      7.623651      7.156053
15
Coordinates from ORCA-job pbe E -3165.067174185318
  Au      6.348167      9.025127      8.955716
  Au      8.736759      5.872986      8.899419
  Au      9.025640      8.708351      9.281485
  Au      8.370170     10.834451      5.490864
  Au      6.044417      6.202751      8.541550
  Au     10.472578     10.070501      7.213046
  Au     10.751208      7.320985      7.524356
  Au      6.818789      8.600783      4.840968
  Au      8.059820     11.115338      8.231591
  Au      9.059426      5.582103      6.054754
  Au      6.362077      5.912741      5.735161
  Au      5.803352     10.652189      6.621624
  Au      4.817010      8.076129      6.772339
  Au      9.495079      8.290765      5.188522
  Fe      7.789023      7.655195      7.153426
15
Coordinates from ORCA-job pbe E -3165.067756555496
  Au      6.333745      9.028511      8.964929
  Au      8.740979      5.868702      8.886815
  Au      9.020086      8.699190      9.291462
  Au      8.369790     10.821362      5.489003
  Au      6.051945      6.213318      8.543900
  Au     10.473018     10.068129      7.214002
  Au     10.756180      7.322048      7.524786
  Au      6.807393      8.601243      4.828201
  Au      8.059121     11.102862      8.235825
  Au      9.060165      5.581039      6.067791
  Au      6.369737      5.922151      5.733169
  Au      5.803914     10.651089      6.621616
  Au      4.820970      8.072355      6.772955
  Au      9.491294      8.280068      5.179823
  Fe      7.795175      7.688327      7.150545
15
Coordinates from ORCA-job pbe E -3165.068112177931
  Au      6.324369      9.030708      8.972701
  Au      8.743130      5.867824      8.879365
  Au      9.014636      8.691205      9.299724
  Au      8.370750     10.810953      5.488970
  Au      6.058087      6.220627      8.544398
  Au     10.471033     10.066120      7.214433
  Au     10.759460      7.324934      7.524899
  Au      6.799910      8.601108      4.818079
  Au      8.059935     11.092531      8.238098
  Au      9.060573      5.582193      6.075027
  Au      6.375315      5.928958      5.733108
  Au      5.806011     10.650659      6.621862
  Au      4.823192      8.068398      6.773429
  Au      9.487925      8.270597      5.172439
  Fe      7.799187      7.713579      7.148290
15
Coordinates from ORCA-job pbe E -3165.068508849555
  Au      6.318694      9.028714      8.980387
  Au      8.740434      5.878850      8.878073
  Au      9.012127      8.682859      9.315361
  Au      8.372730     10.794335      5.488527
  Au      6.060891      6.229447      8.547297
  Au     10.465734     10.065055      7.214154
  Au     10.764130      7.331363      7.525056
  Au      6.795754      8.597276      4.809611
  Au      8.061201     11.076511      8.242248
  Au      9.057823      5.593825      6.072920
  Au      6.378509      5.936700      5.729651
  Au      5.813241     10.645226      6.623227
  Au      4.822721      8.063208      6.773682
  Au      9.488731      8.259268      5.158632
  Fe      7.800794      7.737757      7.145996
15
Coordinates from ORCA-job pbe E -3165.068798510999
  Au      6.315706      9.026184      8.989964
  Au      8.737937      5.891708      8.875951
  Au      9.009472      8.676177      9.333268
  Au      8.375614     10.778342      5.488170
  Au      6.063112      6.235408      8.547060
  Au     10.459185     10.062072      7.213747
  Au     10.766152      7.337767      7.524981
  Au      6.794884      8.592838      4.800225
  Au      8.063278     11.061442      8.246475
  Au      9.054983      5.607383      6.071269
  Au      6.380717      5.942196      5.729601
  Au      5.820369     10.637758      6.624772
  Au      4.820498      8.059903      6.773549
  Au      9.489774      8.249096      5.142094
  Fe      7.801833      7.762122      7.143694
15
Coordinates from ORCA-job pbe E -3165.068996169188
  Au      6.312306      9.024701      8.999823
  Au      8.736545      5.898016      8.871394
  Au      9.007146      8.671167      9.350009
  Au      8.376298     10.766678      5.488091
  Au      6.066271      6.239676      8.543562
  Au     10.454189     10.058667      7.213593
  Au     10.767089      7.342564      7.524862
  Au      6.793661      8.589250      4.790415
  Au      8.063304     11.050433      8.249246
  Au      9.052727      5.614912      6.073537
  Au      6.382860      5.946824      5.733207
  Au      5.825964     10.629225      6.626255
  Au      4.819999      8.060248      6.773254
  Au      9.491337      8.240607      5.126172
  Fe      7.803818      7.787426      7.141402
15
Coordinates from ORCA-job pbe E -3165.069133195441
  Au      6.308625      9.022361      9.011328
  Au      8.737412      5.902373      8.866326
  Au      9.004490      8.667523      9.364145
  Au      8.378703     10.757595      5.487781
  Au      6.069123      6.241664      8.538896
  Au     10.449208     10.053055      7.213671
  Au     10.764689      7.347717      7.524273
  Au      6.792795      8.584531      4.779407
  Au      8.064997     11.042293      8.252200
  Au      9.052413      5.620599      6.077131
  Au      6.384515      5.949481      5.738273
  Au      5.830495     10.622961      6.627271
  Au      4.818057      8.061226      6.772767
  Au      9.491961      8.233908      5.112213
  Fe      7.806030      7.813107      7.139140
15
Coordinates from ORCA-job pbe E -3165.069209343155
  Au      6.306713      9.019820      9.021372
  Au      8.736707      5.903189      8.862287
  Au      9.003359      8.663722      9.377924
  Au      8.375879     10.751000      5.486427
  Au      6.072516      6.245352      8.533745
  Au     10.446051     10.050644      7.213763
  Au     10.762350      7.348885      7.523987
  Au      6.793146      8.579818      4.770290
  Au      8.061228     11.036626      8.254626
  Au      9.050892      5.622495      6.080125
  Au      6.386358      5.954000      5.743516
  Au      5.835089     10.613902      6.628561
  Au      4.819375      8.065090      6.772401
  Au      9.494329      8.226887      5.098789
  Fe      7.809521      7.838966      7.137009
15
Coordinates from ORCA-job pbe E -3165.069233911338
  Au      6.303973      9.016138      9.030692
  Au      8.737376      5.905813      8.860617
  Au      9.002422      8.662428      9.385059
  Au      8.378924     10.745366      5.485826
  Au      6.074761      6.245932      8.531023
  Au     10.441663     10.046179      7.213980
  Au     10.757394      7.352031      7.523105
  Au      6.792686      8.574214      4.761987
  Au      8.063421     11.032056      8.257335
  Au      9.051074      5.625606      6.080842
  Au      6.387780      5.954901      5.746659
  Au      5.838437     10.611012      6.628980
  Au      4.816807      8.065771      6.772002
  Au      9.495102      8.223786      5.091399
  Fe      7.811692      7.859160      7.135315
15
Coordinates from ORCA-job pbe E -3165.069240474294
  Au      6.304811      9.015433      9.031370
  Au      8.737048      5.905171      8.861329
  Au      9.003658      8.662561      9.385373
  Au      8.377024     10.745043      5.484938
  Au      6.074326      6.246974      8.530686
  Au     10.441854     10.047194      7.214078
  Au     10.756704      7.350147      7.523118
  Au      6.793660      8.573375      4.761824
  Au      8.061157     11.032116      8.257876
  Au      9.050837      5.624807      6.080121
  Au      6.387219      5.955890      5.746623
  Au      5.838880     10.609663      6.629064
  Au      4.817244      8.066229      6.772040
  Au      9.496378      8.223764      5.091216
  Fe      7.812713      7.862028      7.135164
15
Coordinates from ORCA-job pbe E -3165.069244757496
  Au      6.305628      9.014371      9.031280
  Au      8.735667      5.904696      8.862535
  Au      9.005907      8.663708      9.383534
  Au      8.375974     10.745516      5.484367
  Au      6.074389      6.247279      8.530792
  Au     10.442262     10.047937      7.214382
  Au     10.755290      7.348018      7.522981
  Au      6.794291      8.572291      4.762463
  Au      8.059735     11.032881      8.258156
  Au      9.049718      5.624010      6.078713
  Au      6.387097      5.956057      5.746341
  Au      5.838479     10.609171      6.628954
  Au      4.817217      8.065891      6.772122
  Au      9.498277      8.225057      5.093071
  Fe      7.813583      7.863510      7.135131
