17
E=  -1799.00533983;c=0;m=4
Au      5.599610525739770      9.725583243016899     10.147387459849041
Au      8.109531174483260      8.684463139881331     10.880145088244490
Au      5.655691903859130      7.012305541561950     10.848748601854760
Au      8.203106617957021      5.946010742295370     10.350376571336470
Au      4.393074273785830      7.744448391828180      8.484747743575850
Au      6.036658293045640      5.130947931414130      8.753461593028749
Au      9.029747757922360      5.090707580607410      7.827110992802400
Au      4.609466105943440      5.731680703706070      6.446899578841030
Au      8.970302848687741      7.189548349563300      5.940210256408530
Au      9.849035999800931      9.759336508757800      6.656079238281100
Au      7.193202498953160      9.473459355717459      5.771534832778590
Au      6.554084125851970      6.933366462695350      4.508300105404860
Au      4.499462609439860      8.453207710911750      5.749826797272910
Au      5.201533736664510     10.445597761114129      7.507715414219980
Au      7.834353799661940     10.194984408790290      8.514486236831070
Au      9.590439057986959      7.812582593812030      8.666679776865760
Mn      7.040859600216470      5.679771074326540      6.560532982404360
