13
E=  -1352.96105205;c=0;m=5
Au      7.020629217668200     11.546614133833090      7.252635271855520
Au      9.320428055412950     10.740927465093449      5.912973139220010
Au      5.886851220390910      7.660788186344480      6.690162508799840
Au      9.182961939708431      5.880350828096150      8.030235730355010
Au      6.924576201357560      9.603946233057830      5.075600059799630
Au      8.818455789822311      7.953128292190040      6.356298645666490
Au      7.921541835374400      5.606888775242130     10.560758784439530
Au      9.299660693519799      8.089868936433620     10.502687090161711
Au      6.109018176656170      7.753784887520850     10.823905961472439
Au      8.918310426673720     10.006474175349471      8.656057761234910
Au      5.991637279140510      9.769863226779190      9.053197790607671
Au      6.012081263258290      5.662983634169380      8.483497251659809
Cr      7.541919241016750      7.694079505890320      8.712837524727430
