19
E=  -2035.44119904;c=0;m=3
Au      4.849678172721460      8.535560655941611      4.779758686024450
Au      7.590308364736900      8.770978732609541      5.466382343321380
Au      3.979792782210250      5.993025310578330      4.191931010053020
Au      3.506127103120590      6.771500178050450      6.787122986062070
Au      6.188866382293870      6.192849691455540      5.846346402968780
Au      9.003669175728371      6.328339203995400      5.666132155036750
Au      9.933108641445820      8.697478989849889      7.061736222451670
Au      5.756760982545050     10.749714829450911      6.181425104270090
Au      3.268605787924340      9.632239226644250      6.913690639192830
Au      7.720068044198130     10.121842842921311      8.105623335237510
Au      5.097829779284050     10.566539807302650      8.958980154217540
Au      9.209105125905319      8.434643172714599      9.837414353964769
Au      3.719226540454330      8.073868809528809      9.225785768291409
Au      6.382997205617220      8.366537395785480     10.103187707246070
Au      5.430425639585440      5.934872750205020      8.694466822936970
Au      7.687445952178890      4.600584699916600      7.632136605264360
Au      7.828127602367070      5.933949127150560     10.206521892264391
Au     10.089163924397770      6.070128340631840      8.348285821895599
Fe      7.778977903285140      7.291096885267120      7.875106819300350
