16
E=  -1708.81860060;c=0;m=4
Au      7.156774182893730      8.804082686188501     11.241358894581930
Au      4.747292998347350      6.591700054301690      7.993873040452070
Au      7.212402687766040      4.694774494662820      8.645452634150560
Au      5.948321332743960      6.340907211444280     10.551985948685349
Au      9.767155576655510      7.473812413082320      7.381732863410380
Au      8.690506477121559      6.753531267375470      9.888296670886520
Au      6.472122320562160     10.661248019936650      9.136568018974510
Au      8.927154979145110      9.503284675606260      9.151847125209530
Au      4.555799678262980      9.493422227940020      7.292676271365650
Au      3.781610737776920     11.131656300123719      9.329173685359891
Au      4.521369500401090      8.597643101825540     10.065320198405811
Au      7.468778952509030      9.414787299384351      6.709149456241350
Au      6.295779050893640      5.093194851954460      6.035387180538800
Au      8.209973413875590      7.060095440894920      5.108852606621520
Au      5.485804050274460      7.743610173172760      5.456518926218420
Fe      7.289268680770890      6.960046152106250      7.546967228897680
