16
Coordinates from ORCA-job pbe E -3300.897462201546
  Au      7.156774      8.804083     11.241359
  Au      4.747293      6.591700      7.993873
  Au      7.212403      4.694774      8.645453
  Au      5.948321      6.340907     10.551986
  Au      9.767156      7.473812      7.381733
  Au      8.690506      6.753531      9.888297
  Au      6.472122     10.661248      9.136568
  Au      8.927155      9.503285      9.151847
  Au      4.555800      9.493422      7.292676
  Au      3.781611     11.131656      9.329174
  Au      4.521370      8.597643     10.065320
  Au      7.468779      9.414787      6.709149
  Au      6.295779      5.093195      6.035387
  Au      8.209973      7.060095      5.108853
  Au      5.485804      7.743610      5.456519
  Fe      7.289269      6.960046      7.546967
16
Coordinates from ORCA-job pbe E -3300.899749878562
  Au      7.152872      8.789829     11.205942
  Au      4.752667      6.600185      8.007444
  Au      7.197718      4.695866      8.658480
  Au      5.950123      6.357231     10.531590
  Au      9.768208      7.493749      7.383870
  Au      8.675417      6.761837      9.883172
  Au      6.479273     10.633895      9.126738
  Au      8.904473      9.495337      9.142644
  Au      4.575224      9.477859      7.295187
  Au      3.803934     11.105002      9.315940
  Au      4.543151      8.584350     10.048183
  Au      7.465166      9.416815      6.724351
  Au      6.285041      5.102678      6.050125
  Au      8.203408      7.075823      5.120854
  Au      5.491887      7.753742      5.481341
  Fe      7.281553      6.973599      7.559301
16
Coordinates from ORCA-job pbe E -3300.900975307349
  Au      7.157827      8.768608     11.178847
  Au      4.749185      6.598428      8.030654
  Au      7.183911      4.676065      8.671140
  Au      5.957037      6.356990     10.509724
  Au      9.787396      7.515791      7.374277
  Au      8.672058      6.755044      9.879476
  Au      6.479281     10.626954      9.121553
  Au      8.898362      9.484178      9.126893
  Au      4.578919      9.476318      7.288192
  Au      3.787347     11.123332      9.316212
  Au      4.545491      8.578867     10.037997
  Au      7.470122      9.429718      6.739517
  Au      6.276963      5.104933      6.069007
  Au      8.201576      7.087657      5.132095
  Au      5.506272      7.749759      5.483161
  Fe      7.278367      6.985154      7.576416
16
Coordinates from ORCA-job pbe E -3300.901832777563
  Au      7.157218      8.758858     11.158796
  Au      4.738317      6.594234      8.049338
  Au      7.171435      4.646991      8.678353
  Au      5.961237      6.352405     10.493447
  Au      9.814022      7.533713      7.358170
  Au      8.680508      6.737297      9.875311
  Au      6.456934     10.624284      9.117584
  Au      8.898308      9.478045      9.112998
  Au      4.581292      9.481609      7.291232
  Au      3.794274     11.115466      9.309083
  Au      4.538794      8.594091     10.020904
  Au      7.470955      9.446888      6.749413
  Au      6.270558      5.107135      6.090426
  Au      8.203705      7.095502      5.143225
  Au      5.515442      7.754140      5.491122
  Fe      7.277114      6.997138      7.595760
16
Coordinates from ORCA-job pbe E -3300.902498944851
  Au      7.161222      8.750446     11.142874
  Au      4.721787      6.582642      8.053557
  Au      7.162029      4.623827      8.683171
  Au      5.966632      6.350089     10.482134
  Au      9.835457      7.548666      7.344675
  Au      8.694815      6.713510      9.865914
  Au      6.450450     10.626914      9.123111
  Au      8.900091      9.471443      9.102464
  Au      4.578565      9.483147      7.275208
  Au      3.776939     11.134781      9.314410
  Au      4.529267      8.598432     10.016875
  Au      7.469779      9.460787      6.745368
  Au      6.272942      5.110193      6.112026
  Au      8.211299      7.091377      5.157584
  Au      5.521813      7.762247      5.500786
  Fe      7.277027      7.009295      7.615004
16
Coordinates from ORCA-job pbe E -3300.903070077948
  Au      7.163443      8.744714     11.126717
  Au      4.700681      6.574654      8.048605
  Au      7.156652      4.614865      8.689021
  Au      5.970440      6.356423     10.469638
  Au      9.848200      7.558618      7.339355
  Au      8.706252      6.693349      9.854599
  Au      6.446410     10.626707      9.134574
  Au      8.896436      9.465330      9.092690
  Au      4.570635      9.496935      7.276484
  Au      3.772974     11.143093      9.327438
  Au      4.523809      8.599975     10.016065
  Au      7.460084      9.474556      6.734609
  Au      6.281231      5.117750      6.128296
  Au      8.217161      7.076728      5.173024
  Au      5.539293      7.750411      5.490790
  Fe      7.276415      7.023690      7.633257
16
Coordinates from ORCA-job pbe E -3300.903688902479
  Au      7.167915      8.741962     11.119704
  Au      4.681959      6.568656      8.038655
  Au      7.154264      4.617025      8.695275
  Au      5.976804      6.362668     10.459107
  Au      9.854606      7.562757      7.340178
  Au      8.723131      6.670633      9.845947
  Au      6.445079     10.625285      9.140043
  Au      8.895313      9.458760      9.083844
  Au      4.568997      9.503111      7.273914
  Au      3.774158     11.139232      9.325647
  Au      4.516891      8.593686     10.009798
  Au      7.442534      9.484606      6.722541
  Au      6.289048      5.129242      6.138987
  Au      8.219485      7.057486      5.188408
  Au      5.544295      7.761223      5.498483
  Fe      7.275633      7.041462      7.654629
16
Coordinates from ORCA-job pbe E -3300.904213289855
  Au      7.171690      8.743727     11.118780
  Au      4.669213      6.566732      8.024753
  Au      7.156847      4.625042      8.696252
  Au      5.984796      6.372306     10.449238
  Au      9.856755      7.556486      7.343135
  Au      8.738796      6.654169      9.847707
  Au      6.448539     10.622424      9.144857
  Au      8.891010      9.452946      9.074863
  Au      4.569470      9.509152      7.275324
  Au      3.778038     11.131554      9.322327
  Au      4.510805      8.583121     10.001835
  Au      7.417861      9.491204      6.714681
  Au      6.296133      5.139062      6.143032
  Au      8.216476      7.036360      5.199770
  Au      5.547648      7.773475      5.501557
  Fe      7.276038      7.060037      7.677050
16
Coordinates from ORCA-job pbe E -3300.904693558878
  Au      7.172896      8.741819     11.113104
  Au      4.654551      6.566126      8.016781
  Au      7.168690      4.619229      8.692333
  Au      5.993774      6.378529     10.435852
  Au      9.861295      7.559904      7.340127
  Au      8.750121      6.637251      9.849957
  Au      6.449296     10.621039      9.152512
  Au      8.887389      9.443001      9.061729
  Au      4.567477      9.516298      7.273840
  Au      3.778461     11.133416      9.321927
  Au      4.501924      8.577678      9.991839
  Au      7.407650      9.497735      6.707557
  Au      6.297066      5.146613      6.156111
  Au      8.216319      7.022339      5.216063
  Au      5.549764      7.778670      5.502422
  Fe      7.273442      7.078150      7.703008
16
Coordinates from ORCA-job pbe E -3300.905364655861
  Au      7.171255      8.745782     11.116900
  Au      4.649200      6.574326      8.005339
  Au      7.200714      4.614999      8.678498
  Au      6.005540      6.380865     10.418224
  Au      9.858977      7.552656      7.338088
  Au      8.756798      6.631084      9.865992
  Au      6.451949     10.622047      9.159359
  Au      8.881586      9.432215      9.054451
  Au      4.566286      9.520053      7.272342
  Au      3.781569     11.136922      9.321391
  Au      4.493383      8.572233      9.979104
  Au      7.405444      9.496912      6.702755
  Au      6.288425      5.151272      6.164133
  Au      8.207501      7.013249      5.228509
  Au      5.543203      7.778747      5.498630
  Fe      7.268285      7.094433      7.731447
16
Coordinates from ORCA-job pbe E -3300.906000421658
  Au      7.165634      8.750266     11.126738
  Au      4.651734      6.586461      7.993472
  Au      7.244526      4.615549      8.661234
  Au      6.016411      6.381104     10.397527
  Au      9.851535      7.537038      7.339364
  Au      8.760516      6.634686      9.890950
  Au      6.453597     10.623520      9.163353
  Au      8.873413      9.420964      9.053319
  Au      4.566334      9.522031      7.269791
  Au      3.789193     11.142689      9.321939
  Au      4.489924      8.568178      9.968810
  Au      7.408295      9.489922      6.699005
  Au      6.278747      5.150945      6.166869
  Au      8.191373      7.009484      5.235426
  Au      5.527718      7.777495      5.488994
  Fe      7.261165      7.107464      7.758370
16
Coordinates from ORCA-job pbe E -3300.906485208365
  Au      7.160896      8.753128     11.134588
  Au      4.650974      6.595535      7.982066
  Au      7.284486      4.618676      8.647575
  Au      6.024509      6.380004     10.374505
  Au      9.844920      7.519061      7.341641
  Au      8.768780      6.636277      9.914898
  Au      6.455494     10.623137      9.164815
  Au      8.864042      9.408341      9.050568
  Au      4.566034      9.524954      7.266743
  Au      3.796412     11.148535      9.322767
  Au      4.488133      8.566509      9.960942
  Au      7.407841      9.483933      6.694278
  Au      6.276032      5.154157      6.170334
  Au      8.175246      7.008026      5.244342
  Au      5.512047      7.776169      5.480140
  Fe      7.254267      7.121356      7.784959
16
Coordinates from ORCA-job pbe E -3300.906908299085
  Au      7.156724      8.752595     11.140417
  Au      4.647304      6.603857      7.971831
  Au      7.321054      4.622476      8.636858
  Au      6.029952      6.379869     10.351345
  Au      9.840353      7.496725      7.345243
  Au      8.779919      6.637813      9.938812
  Au      6.456684     10.621803      9.163645
  Au      8.855213      9.393332      9.045450
  Au      4.563128      9.528871      7.263681
  Au      3.801430     11.153392      9.324371
  Au      4.488589      8.566882      9.955943
  Au      7.406505      9.479610      6.688111
  Au      6.278157      5.157441      6.176080
  Au      8.163868      7.011912      5.253317
  Au      5.492966      7.776004      5.470055
  Fe      7.248267      7.135215      7.810002
16
Coordinates from ORCA-job pbe E -3300.907325090008
  Au      7.154671      8.750825     11.145083
  Au      4.641268      6.611743      7.961914
  Au      7.354562      4.626835      8.629326
  Au      6.033455      6.378736     10.329861
  Au      9.837697      7.467795      7.352181
  Au      8.793823      6.638516      9.962745
  Au      6.458229     10.619394      9.158602
  Au      8.846332      9.376446      9.038218
  Au      4.559229      9.531409      7.259923
  Au      3.803918     11.156710      9.324490
  Au      4.490681      8.569868      9.953110
  Au      7.402626      9.476875      6.681206
  Au      6.284025      5.165590      6.181603
  Au      8.151087      7.024996      5.261500
  Au      5.475257      7.773536      5.462381
  Fe      7.243255      7.148521      7.833016
16
Coordinates from ORCA-job pbe E -3300.907781844637
  Au      7.154593      8.746829     11.146456
  Au      4.632768      6.620225      7.953620
  Au      7.382878      4.631656      8.626787
  Au      6.035222      6.377676     10.310734
  Au      9.837236      7.428827      7.363281
  Au      8.809272      6.640231      9.985381
  Au      6.459025     10.616078      9.150105
  Au      8.837310      9.357045      9.027521
  Au      4.551340      9.534244      7.256293
  Au      3.803829     11.157881      9.326288
  Au      4.496024      8.574400      9.952887
  Au      7.396173      9.477371      6.672462
  Au      6.295759      5.174216      6.189653
  Au      8.145866      7.048188      5.269146
  Au      5.453582      7.772610      5.452342
  Fe      7.239236      7.160318      7.852205
16
Coordinates from ORCA-job pbe E -3300.908239662529
  Au      7.155008      8.743429     11.148771
  Au      4.624430      6.631470      7.945069
  Au      7.414624      4.635266      8.623543
  Au      6.035978      6.374339     10.288024
  Au      9.835697      7.389843      7.374941
  Au      8.828052      6.644544     10.007731
  Au      6.459128     10.613259      9.141342
  Au      8.826939      9.337693      9.015134
  Au      4.545257      9.536948      7.252126
  Au      3.802593     11.157980      9.327790
  Au      4.500965      8.578364      9.953226
  Au      7.388088      9.477780      6.665505
  Au      6.303582      5.183950      6.198196
  Au      8.134268      7.066929      5.277387
  Au      5.441498      7.774145      5.441937
  Fe      7.234008      7.171858      7.874437
16
Coordinates from ORCA-job pbe E -3300.908733000558
  Au      7.157802      8.737619     11.147960
  Au      4.614606      6.647068      7.936251
  Au      7.441057      4.638932      8.629285
  Au      6.033894      6.367513     10.269710
  Au      9.834697      7.340575      7.391069
  Au      8.849417      6.654292     10.023541
  Au      6.457641     10.610889      9.129695
  Au      8.815779      9.319265      8.998574
  Au      4.536890      9.540558      7.247789
  Au      3.796768     11.152796      9.332249
  Au      4.509337      8.582781      9.958616
  Au      7.374633      9.484192      6.658754
  Au      6.312851      5.197207      6.208160
  Au      8.130608      7.086072      5.284070
  Au      5.434834      7.780344      5.429617
  Fe      7.229300      7.177694      7.889819
16
Coordinates from ORCA-job pbe E -3300.909165845346
  Au      7.160145      8.729870     11.144657
  Au      4.605204      6.667042      7.927097
  Au      7.465682      4.640189      8.635930
  Au      6.030876      6.360402     10.254220
  Au      9.835356      7.289286      7.407148
  Au      8.866670      6.664154     10.036426
  Au      6.454704     10.610348      9.117694
  Au      8.805304      9.302319      8.979129
  Au      4.525993      9.544360      7.243689
  Au      3.790262     11.146234      9.339175
  Au      4.519787      8.586655      9.966258
  Au      7.359606      9.494340      6.651267
  Au      6.323538      5.211854      6.221195
  Au      8.135357      7.103835      5.292227
  Au      5.426474      7.785850      5.417731
  Fe      7.225155      7.181058      7.901320
16
Coordinates from ORCA-job pbe E -3300.909519014190
  Au      7.162813      8.723359     11.141246
  Au      4.596565      6.689780      7.917755
  Au      7.491922      4.639913      8.639475
  Au      6.027266      6.351447     10.241271
  Au      9.836971      7.239759      7.424401
  Au      8.877428      6.671253     10.050128
  Au      6.453020     10.611382      9.105195
  Au      8.795641      9.287199      8.958210
  Au      4.514338      9.546688      7.239806
  Au      3.785644     11.140506      9.345638
  Au      4.530835      8.590764      9.975424
  Au      7.343209      9.505063      6.643409
  Au      6.335468      5.227090      6.232987
  Au      8.140438      7.123231      5.301744
  Au      5.417407      7.786530      5.408332
  Fe      7.221150      7.183831      7.910137
16
Coordinates from ORCA-job pbe E -3300.909803783738
  Au      7.165902      8.718264     11.136646
  Au      4.588416      6.713350      7.909614
  Au      7.519033      4.639919      8.639703
  Au      6.023386      6.342084     10.227409
  Au      9.840161      7.194187      7.441858
  Au      8.881317      6.675048     10.065830
  Au      6.452388     10.613837      9.094365
  Au      8.788036      9.273147      8.936507
  Au      4.501603      9.548530      7.236607
  Au      3.783454     11.135649      9.352235
  Au      4.542106      8.593620      9.985035
  Au      7.325711      9.516314      6.633891
  Au      6.347317      5.239369      6.244289
  Au      8.146798      7.142378      5.313377
  Au      5.407046      7.783794      5.399873
  Fe      7.217441      7.188306      7.917920
16
Coordinates from ORCA-job pbe E -3300.910027598162
  Au      7.170171      8.715792     11.131138
  Au      4.580687      6.734828      7.903044
  Au      7.545420      4.640581      8.637937
  Au      6.018516      6.330462     10.215444
  Au      9.843992      7.153917      7.459925
  Au      8.878921      6.676839     10.081965
  Au      6.453753     10.616720      9.085138
  Au      8.782579      9.261623      8.913742
  Au      4.489770      9.549778      7.233703
  Au      3.783721     11.131006      9.357597
  Au      4.552717      8.595711      9.996016
  Au      7.305525      9.528569      6.624641
  Au      6.356793      5.249233      6.252459
  Au      8.153112      7.160306      5.326284
  Au      5.400157      7.779014      5.393688
  Fe      7.214280      7.193419      7.922441
16
Coordinates from ORCA-job pbe E -3300.910199985842
  Au      7.174691      8.715853     11.124611
  Au      4.574108      6.751688      7.898902
  Au      7.570753      4.644615      8.631738
  Au      6.014215      6.320655     10.201361
  Au      9.848321      7.118264      7.478120
  Au      8.871762      6.677612     10.099868
  Au      6.456388     10.619275      9.080368
  Au      8.780285      9.251263      8.891636
  Au      4.478252      9.550590      7.231386
  Au      3.785948     11.126380      9.362194
  Au      4.562156      8.595637     10.006175
  Au      7.285617      9.540833      6.614796
  Au      6.362680      5.255116      6.258943
  Au      8.158972      7.173931      5.340562
  Au      5.394122      7.773924      5.388209
  Fe      7.211846      7.202160      7.926291
16
Coordinates from ORCA-job pbe E -3300.910331706612
  Au      7.180051      8.719288     11.118021
  Au      4.568863      6.762910      7.897418
  Au      7.591935      4.650309      8.625388
  Au      6.008552      6.308853     10.192313
  Au      9.851642      7.087811      7.495403
  Au      8.861538      6.679968     10.115308
  Au      6.460605     10.620453      9.078429
  Au      8.781243      9.245993      8.869674
  Au      4.469099      9.550107      7.229458
  Au      3.788558     11.120886      9.364692
  Au      4.569450      8.594942     10.016778
  Au      7.265709      9.553698      6.608253
  Au      6.362405      5.258790      6.260314
  Au      8.164858      7.183729      5.354257
  Au      5.395072      7.770625      5.385590
  Fe      7.210536      7.209435      7.923866
16
Coordinates from ORCA-job pbe E -3300.910427610319
  Au      7.184072      8.725050     11.112525
  Au      4.565081      6.766572      7.896820
  Au      7.613892      4.662799      8.610829
  Au      6.007623      6.303318     10.177573
  Au      9.853008      7.057228      7.514765
  Au      8.852504      6.683276     10.134320
  Au      6.465188     10.618943      9.082170
  Au      8.783954      9.239674      8.851608
  Au      4.460456      9.548698      7.228187
  Au      3.792427     11.116701      9.366071
  Au      4.574392      8.592197     10.022939
  Au      7.251010      9.563742      6.600818
  Au      6.358576      5.259220      6.261319
  Au      8.166815      7.188317      5.367799
  Au      5.391696      7.768677      5.382575
  Fe      7.209422      7.223384      7.924841
16
Coordinates from ORCA-job pbe E -3300.910495839909
  Au      7.187839      8.731537     11.108447
  Au      4.562159      6.767348      7.897944
  Au      7.629253      4.674838      8.601617
  Au      6.004530      6.295271     10.173228
  Au      9.851520      7.030903      7.529002
  Au      8.844625      6.690617     10.146938
  Au      6.468482     10.615836      9.086831
  Au      8.790768      9.240724      8.834284
  Au      4.454395      9.545066      7.227739
  Au      3.794176     11.111667      9.366231
  Au      4.576814      8.588725     10.028535
  Au      7.238326      9.575093      6.598436
  Au      6.347691      5.259185      6.257957
  Au      8.171662      7.188734      5.378943
  Au      5.398753      7.771241      5.382708
  Fe      7.209119      7.231011      7.916323
16
Coordinates from ORCA-job pbe E -3300.910545398711
  Au      7.187823      8.735327     11.109371
  Au      4.560523      6.762653      7.896983
  Au      7.645108      4.688465      8.589737
  Au      6.008186      6.294559     10.166805
  Au      9.845590      7.009418      7.541289
  Au      8.844749      6.697376     10.159106
  Au      6.470492     10.610161      9.090581
  Au      8.793173      9.239201      8.827348
  Au      4.451285      9.542173      7.227950
  Au      3.797253     11.112064      9.365674
  Au      4.576221      8.586638     10.027171
  Au      7.235827      9.579386      6.597344
  Au      6.339539      5.258277      6.256228
  Au      8.169959      7.188143      5.383458
  Au      5.397017      7.773794      5.381325
  Fe      7.207368      7.240161      7.914792
16
Coordinates from ORCA-job pbe E -3300.910621357622
  Au      7.184646      8.737212     11.114268
  Au      4.557383      6.753377      7.895166
  Au      7.664960      4.709042      8.574173
  Au      6.016330      6.297716     10.161875
  Au      9.832271      6.981569      7.550915
  Au      8.850516      6.708829     10.173698
  Au      6.469774     10.600534      9.096660
  Au      8.799204      9.239670      8.822076
  Au      4.449212      9.537575      7.229646
  Au      3.800701     11.115074      9.365806
  Au      4.571560      8.581645     10.019316
  Au      7.237032      9.585639      6.596694
  Au      6.325662      5.256162      6.256045
  Au      8.168798      7.181398      5.386989
  Au      5.398971      7.780548      5.380837
  Fe      7.203094      7.251807      7.910997
16
Coordinates from ORCA-job pbe E -3300.910684858567
  Au      7.178656      8.734583     11.121501
  Au      4.553228      6.746457      7.892119
  Au      7.697063      4.731576      8.562015
  Au      6.024079      6.300187     10.157173
  Au      9.813933      6.948225      7.560998
  Au      8.857108      6.722249     10.191709
  Au      6.470133     10.590088      9.096817
  Au      8.801022      9.235985      8.819034
  Au      4.447406      9.533922      7.231639
  Au      3.807153     11.121198      9.367484
  Au      4.567636      8.579251     10.010394
  Au      7.241242      9.589816      6.595964
  Au      6.315957      5.254798      6.255979
  Au      8.164120      7.183726      5.385938
  Au      5.396509      7.784437      5.378781
  Fe      7.194871      7.261299      7.907616
16
Coordinates from ORCA-job pbe E -3300.910758580402
  Au      7.171052      8.730325     11.126192
  Au      4.542570      6.739069      7.889062
  Au      7.725247      4.750262      8.550515
  Au      6.032859      6.303270     10.152028
  Au      9.795908      6.916047      7.565094
  Au      8.867495      6.730963     10.207415
  Au      6.470040     10.580636      9.096589
  Au      8.802368      9.230816      8.813348
  Au      4.445086      9.533062      7.234858
  Au      3.814356     11.128654      9.371361
  Au      4.560619      8.575241      9.999051
  Au      7.239706      9.599047      6.591617
  Au      6.314184      5.254831      6.265146
  Au      8.164719      7.183186      5.386563
  Au      5.401294      7.789427      5.380233
  Fe      7.182610      7.272960      7.906090
16
Coordinates from ORCA-job pbe E -3300.910841137260
  Au      7.162342      8.726859     11.129792
  Au      4.532653      6.736491      7.887661
  Au      7.761308      4.768975      8.546148
  Au      6.034795      6.302370     10.145646
  Au      9.777701      6.882789      7.569321
  Au      8.870257      6.739235     10.225950
  Au      6.473936     10.574772      9.092254
  Au      8.804126      9.221041      8.806703
  Au      4.441489      9.531893      7.238088
  Au      3.823119     11.133750      9.377405
  Au      4.556906      8.572567      9.992214
  Au      7.240729      9.606605      6.584753
  Au      6.317069      5.255545      6.272460
  Au      8.164565      7.195014      5.383228
  Au      5.402190      7.788831      5.382423
  Fe      7.166930      7.281060      7.901117
16
Coordinates from ORCA-job pbe E -3300.910932492833
  Au      7.153241      8.725422     11.126755
  Au      4.519360      6.732973      7.888850
  Au      7.771623      4.765786      8.555391
  Au      6.030761      6.298739     10.145049
  Au      9.770403      6.879969      7.555448
  Au      8.869006      6.735874     10.232309
  Au      6.481013     10.576334      9.084193
  Au      8.803794      9.210811      8.802674
  Au      4.441108      9.534518      7.241492
  Au      3.831555     11.136605      9.384976
  Au      4.551998      8.571895      9.989322
  Au      7.241376      9.613150      6.576708
  Au      6.336597      5.258065      6.286959
  Au      8.170664      7.211298      5.375257
  Au      5.409992      7.783817      5.392577
  Fe      7.147623      7.282541      7.897200
16
Coordinates from ORCA-job pbe E -3300.910992757101
  Au      7.150786      8.733197     11.122698
  Au      4.509320      6.726931      7.889483
  Au      7.798450      4.784686      8.548837
  Au      6.030753      6.293502     10.134371
  Au      9.756813      6.849401      7.577213
  Au      8.862782      6.740919     10.248554
  Au      6.490483     10.574298      9.081049
  Au      8.805647      9.198442      8.788602
  Au      4.436961      9.532809      7.244642
  Au      3.841628     11.133248      9.391475
  Au      4.553032      8.566510      9.991815
  Au      7.234476      9.623403      6.567156
  Au      6.341787      5.261279      6.288659
  Au      8.174678      7.221068      5.374474
  Au      5.410278      7.783151      5.397042
  Fe      7.132240      7.294952      7.889090
16
Coordinates from ORCA-job pbe E -3300.911050976882
  Au      7.153796      8.743395     11.119603
  Au      4.513215      6.721409      7.892762
  Au      7.779234      4.777418      8.551548
  Au      6.029716      6.293213     10.136450
  Au      9.761709      6.869826      7.576873
  Au      8.853423      6.739098     10.245261
  Au      6.494310     10.579769      9.082792
  Au      8.808037      9.201338      8.790664
  Au      4.442522      9.530823      7.245384
  Au      3.840810     11.125288      9.392014
  Au      4.555325      8.563671      9.996924
  Au      7.239576      9.620973      6.568036
  Au      6.339394      5.260438      6.277761
  Au      8.177350      7.215912      5.372262
  Au      5.409752      7.780742      5.400833
  Fe      7.131946      7.294484      7.885993
16
Coordinates from ORCA-job pbe E -3300.911083876255
  Au      7.151776      8.749349     11.120936
  Au      4.509793      6.713545      7.893537
  Au      7.781082      4.783617      8.546757
  Au      6.034019      6.293707     10.135501
  Au      9.753162      6.866126      7.578151
  Au      8.851579      6.744095     10.252533
  Au      6.497299     10.579989      9.082351
  Au      8.809180      9.200509      8.789921
  Au      4.447792      9.527967      7.248568
  Au      3.844584     11.123464      9.395224
  Au      4.553482      8.559126      9.994745
  Au      7.245086      9.623490      6.567154
  Au      6.338266      5.257290      6.273936
  Au      8.178637      7.213998      5.370469
  Au      5.411737      7.781371      5.404519
  Fe      7.122641      7.300155      7.880860
16
Coordinates from ORCA-job pbe E -3300.911116134733
  Au      7.148775      8.756064     11.123894
  Au      4.505371      6.704299      7.894855
  Au      7.780703      4.789444      8.541071
  Au      6.040890      6.295591     10.135418
  Au      9.743004      6.857802      7.581750
  Au      8.853538      6.750355     10.259827
  Au      6.498225     10.583735      9.079051
  Au      8.808283      9.198217      8.790998
  Au      4.456924      9.524246      7.253466
  Au      3.846144     11.120495      9.399155
  Au      4.553086      8.553053      9.993026
  Au      7.254102      9.627088      6.564511
  Au      6.338377      5.255092      6.268746
  Au      8.178361      7.213363      5.366702
  Au      5.414683      7.781799      5.408340
  Fe      7.109649      7.307154      7.874350
16
Coordinates from ORCA-job pbe E -3300.911131822402
  Au      7.147414      8.758700     11.124959
  Au      4.502989      6.700213      7.894957
  Au      7.783194      4.793013      8.539134
  Au      6.045794      6.295668     10.135129
  Au      9.736491      6.852363      7.583062
  Au      8.855041      6.753428     10.262887
  Au      6.497976     10.587342      9.076338
  Au      8.804231      9.195514      8.792473
  Au      4.463288      9.523186      7.256843
  Au      3.845126     11.119100      9.401866
  Au      4.554463      8.551546      9.993527
  Au      7.260622      9.629659      6.562583
  Au      6.337471      5.253421      6.265116
  Au      8.179939      7.212758      5.367550
  Au      5.414403      7.781230      5.407906
  Fe      7.101673      7.310654      7.870829
16
Coordinates from ORCA-job pbe E -3300.911143151933
  Au      7.148912      8.760590     11.124520
  Au      4.503257      6.699865      7.896180
  Au      7.777868      4.791112      8.536246
  Au      6.047678      6.295672     10.136539
  Au      9.736279      6.849505      7.585816
  Au      8.857502      6.753786     10.261991
  Au      6.495739     10.592769      9.073910
  Au      8.799750      9.194586      8.794568
  Au      4.468702      9.521627      7.259140
  Au      3.840470     11.116176      9.402142
  Au      4.558392      8.551880      9.996811
  Au      7.263569      9.631930      6.560029
  Au      6.336800      5.253339      6.262552
  Au      8.180972      7.213379      5.369860
  Au      5.415297      7.779868      5.406574
  Fe      7.098928      7.311713      7.868281
16
Coordinates from ORCA-job pbe E -3300.911150088320
  Au      7.149530      8.760322     11.124244
  Au      4.503808      6.700047      7.896898
  Au      7.779293      4.792714      8.535636
  Au      6.047645      6.295735     10.136753
  Au      9.736125      6.848757      7.586226
  Au      8.858278      6.751204     10.261312
  Au      6.494897     10.594787      9.073804
  Au      8.797459      9.193784      8.795933
  Au      4.471097      9.520814      7.259936
  Au      3.837846     11.115366      9.400975
  Au      4.560091      8.553156      9.997934
  Au      7.264898      9.633213      6.558456
  Au      6.334094      5.253192      6.262255
  Au      8.181363      7.213827      5.371584
  Au      5.415397      7.778765      5.406136
  Fe      7.098294      7.312112      7.867079
16
Coordinates from ORCA-job pbe E -3300.911154730040
  Au      7.152511      8.759251     11.123657
  Au      4.505072      6.700668      7.897793
  Au      7.778046      4.793561      8.533888
  Au      6.046385      6.295495     10.137778
  Au      9.737713      6.851628      7.586660
  Au      8.858578      6.747323     10.260137
  Au      6.493988     10.596913      9.074258
  Au      8.794247      9.193648      8.798249
  Au      4.473619      9.519896      7.260177
  Au      3.834780     11.114872      9.398306
  Au      4.562200      8.555669      9.999955
  Au      7.265095      9.634131      6.557513
  Au      6.331667      5.251715      6.262262
  Au      8.181707      7.213934      5.373399
  Au      5.414960      7.777377      5.405250
  Fe      7.099548      7.311716      7.865879
16
Coordinates from ORCA-job pbe E -3300.911156577608
  Au      7.153171      8.758807     11.123933
  Au      4.504853      6.699918      7.898315
  Au      7.778481      4.795222      8.533359
  Au      6.045784      6.296164     10.138016
  Au      9.737531      6.853433      7.586173
  Au      8.858722      6.745899     10.260851
  Au      6.493887     10.596932      9.074965
  Au      8.793919      9.193474      8.799296
  Au      4.474558      9.519188      7.260260
  Au      3.834614     11.115108      9.397307
  Au      4.562081      8.555959      9.999702
  Au      7.265818      9.634364      6.557523
  Au      6.330624      5.250962      6.262372
  Au      8.181250      7.213332      5.372210
  Au      5.415525      7.777094      5.405985
  Fe      7.099296      7.311939      7.864893
