16
E=  -1708.89347157;c=0;m=4
Au      9.169298392000851      8.717842055635581      5.630934781582610
Au      6.358662237490270      8.795326189424280      5.481301715690230
Au     10.203002034419949      9.993034952656529      8.044246265153291
Au     10.305212881232000      7.111961038182350      7.643123738276510
Au      7.602145248692780     10.811678371077910      7.003701769103270
Au      7.738539548809510      6.355427081175130      6.406931740085300
Au      8.487193282160050      5.787924155713790      9.262271000930690
Au      9.711068483883389      8.169834396204040     10.263699114055269
Au      4.826792863432170      6.857170159862530      6.690052254419120
Au      5.582668745301700      9.235803052838561      8.295932171195370
Au      7.882415683717340     10.348123594308911      9.764954494071141
Au      4.541392520776980      6.912854066519770      9.479169626848300
Au      6.290305697965350      5.197572891078340     10.890937554727520
Au      6.119622272011250      4.804686262245450      8.096719489462471
Au      6.891056724950350      7.920020368982960     10.660534896169960
Fe      8.019865443155970      8.353618264093900      8.051982838228909
