16
Coordinates from ORCA-job pbe E -3300.906169244371
  Au      9.169298      8.717842      5.630935
  Au      6.358662      8.795326      5.481302
  Au     10.203002      9.993035      8.044246
  Au     10.305213      7.111961      7.643124
  Au      7.602145     10.811678      7.003702
  Au      7.738540      6.355427      6.406932
  Au      8.487193      5.787924      9.262271
  Au      9.711068      8.169834     10.263699
  Au      4.826793      6.857170      6.690052
  Au      5.582669      9.235803      8.295932
  Au      7.882416     10.348124      9.764954
  Au      4.541393      6.912854      9.479170
  Au      6.290306      5.197573     10.890938
  Au      6.119622      4.804686      8.096719
  Au      6.891057      7.920020     10.660535
  Fe      8.019865      8.353618      8.051983
16
Coordinates from ORCA-job pbe E -3300.908664378870
  Au      9.161302      8.707772      5.652014
  Au      6.363720      8.786200      5.501004
  Au     10.170274      9.960411      8.057251
  Au     10.294763      7.103935      7.628697
  Au      7.601057     10.791731      7.018081
  Au      7.735789      6.347013      6.424901
  Au      8.474136      5.816554      9.251690
  Au      9.684421      8.158146     10.250836
  Au      4.854723      6.868844      6.704221
  Au      5.584127      9.222185      8.310033
  Au      7.864634     10.349898      9.756749
  Au      4.578580      6.932380      9.465881
  Au      6.305553      5.224687     10.866483
  Au      6.143436      4.841436      8.094705
  Au      6.901656      7.916724     10.628894
  Fe      8.011070      8.344961      8.055052
16
Coordinates from ORCA-job pbe E -3300.909498046863
  Au      9.153292      8.705040      5.655927
  Au      6.373820      8.788980      5.507874
  Au     10.154909      9.941300      8.070130
  Au     10.309891      7.098210      7.594915
  Au      7.596676     10.783007      7.017513
  Au      7.738581      6.328505      6.434399
  Au      8.470212      5.822484      9.255317
  Au      9.695409      8.169364     10.245998
  Au      4.871059      6.883331      6.700932
  Au      5.576031      9.218545      8.328130
  Au      7.850021     10.383380      9.748911
  Au      4.586385      6.944645      9.460864
  Au      6.284552      5.201871     10.875830
  Au      6.151862      4.850921      8.087788
  Au      6.906419      7.910843     10.624298
  Fe      8.010123      8.342451      8.057668
16
Coordinates from ORCA-job pbe E -3300.909968313036
  Au      9.158203      8.710950      5.651642
  Au      6.386806      8.802751      5.501067
  Au     10.154329      9.925963      8.094446
  Au     10.315093      7.076725      7.566831
  Au      7.600508     10.789509      7.013152
  Au      7.746206      6.310114      6.429977
  Au      8.461876      5.841474      9.255608
  Au      9.687434      8.170114     10.235342
  Au      4.875593      6.886121      6.701638
  Au      5.562860      9.227824      8.340285
  Au      7.822180     10.405800      9.749695
  Au      4.600398      6.936904      9.474034
  Au      6.275433      5.190889     10.880675
  Au      6.156873      4.853356      8.107638
  Au      6.917873      7.903615     10.607197
  Fe      8.007575      8.340770      8.057267
16
Coordinates from ORCA-job pbe E -3300.910172267670
  Au      9.159813      8.712313      5.651242
  Au      6.392893      8.803762      5.505862
  Au     10.156628      9.927575      8.095729
  Au     10.308058      7.064726      7.553216
  Au      7.601716     10.791103      7.013006
  Au      7.749370      6.303011      6.425068
  Au      8.467313      5.847192      9.260102
  Au      9.694326      8.176631     10.232575
  Au      4.890026      6.896653      6.701494
  Au      5.555989      9.233646      8.342880
  Au      7.803096     10.409207      9.746388
  Au      4.600518      6.931130      9.472322
  Au      6.264690      5.177384     10.889031
  Au      6.150779      4.855071      8.111021
  Au      6.927794      7.904252     10.608501
  Fe      8.006234      8.339221      8.058057
16
Coordinates from ORCA-job pbe E -3300.910289434366
  Au      9.166006      8.716677      5.649275
  Au      6.400398      8.807387      5.508050
  Au     10.157642      9.929872      8.094663
  Au     10.295394      7.053063      7.541887
  Au      7.606258     10.797189      7.012384
  Au      7.752562      6.297558      6.415170
  Au      8.463603      5.841894      9.266549
  Au      9.707094      8.187015     10.229877
  Au      4.907166      6.905080      6.707488
  Au      5.547859      9.242634      8.341454
  Au      7.782573     10.406681      9.741427
  Au      4.605746      6.923386      9.474625
  Au      6.260026      5.172517     10.891927
  Au      6.147181      4.857987      8.120679
  Au      6.926549      7.896492     10.613817
  Fe      8.003184      8.337444      8.057222
16
Coordinates from ORCA-job pbe E -3300.910383259290
  Au      9.173980      8.721580      5.649948
  Au      6.407817      8.813175      5.506997
  Au     10.151087      9.927380      8.091941
  Au     10.281693      7.044567      7.539932
  Au      7.613209     10.802786      7.013517
  Au      7.753270      6.292246      6.407335
  Au      8.465814      5.841293      9.271278
  Au      9.702882      8.188838     10.220900
  Au      4.918844      6.910315      6.712435
  Au      5.539974      9.248482      8.340071
  Au      7.768501     10.397239      9.739266
  Au      4.607353      6.925557      9.475848
  Au      6.266543      5.171819     10.901201
  Au      6.149175      4.858660      8.121302
  Au      6.930477      7.894399     10.618076
  Fe      7.998624      8.334540      8.056445
16
Coordinates from ORCA-job pbe E -3300.910426998797
  Au      9.176567      8.723264      5.648123
  Au      6.413334      8.817708      5.505910
  Au     10.147557      9.929344      8.085542
  Au     10.275329      7.039578      7.542359
  Au      7.614341     10.805898      7.012397
  Au      7.752119      6.290695      6.403428
  Au      8.465172      5.837789      9.276329
  Au      9.698545      8.187147     10.217742
  Au      4.927660      6.914242      6.716635
  Au      5.536252      9.250547      8.337795
  Au      7.762613     10.390692      9.740840
  Au      4.609199      6.930058      9.477314
  Au      6.272125      5.174835     10.902987
  Au      6.153581      4.859111      8.120405
  Au      6.930799      7.890175     10.623124
  Fe      7.994051      8.331795      8.055562
16
Coordinates from ORCA-job pbe E -3300.910452542924
  Au      9.179219      8.722108      5.647616
  Au      6.418680      8.822606      5.504022
  Au     10.141624      9.927826      8.081864
  Au     10.272212      7.038235      7.541977
  Au      7.614162     10.808211      7.013834
  Au      7.752735      6.290260      6.401067
  Au      8.464942      5.835034      9.281455
  Au      9.696375      8.188822     10.212162
  Au      4.934105      6.917516      6.719360
  Au      5.534967      9.252988      8.336650
  Au      7.759618     10.388608      9.739836
  Au      4.609864      6.933461      9.480853
  Au      6.271777      5.174349     10.902928
  Au      6.157550      4.857197      8.120623
  Au      6.931635      7.886154     10.627838
  Fe      7.989777      8.329503      8.054408
16
Coordinates from ORCA-job pbe E -3300.910482359666
  Au      9.181347      8.718470      5.645063
  Au      6.422090      8.826858      5.500675
  Au     10.136795      9.928152      8.076799
  Au     10.270917      7.036130      7.543564
  Au      7.610940     10.811528      7.015299
  Au      7.753309      6.289527      6.400429
  Au      8.466171      5.833170      9.286183
  Au      9.697213      8.191666     10.208592
  Au      4.941659      6.920466      6.724028
  Au      5.534301      9.254450      8.336661
  Au      7.757727     10.386596      9.741320
  Au      4.610615      6.938321      9.483603
  Au      6.266372      5.172173     10.899297
  Au      6.162022      4.855732      8.119312
  Au      6.933817      7.883485     10.632422
  Fe      7.983946      8.326153      8.053245
16
Coordinates from ORCA-job pbe E -3300.910513286061
  Au      9.182041      8.711979      5.643884
  Au      6.425160      8.831706      5.495770
  Au     10.131172      9.928528      8.070691
  Au     10.270903      7.034985      7.545308
  Au      7.605748     10.812981      7.018610
  Au      7.755740      6.288571      6.399675
  Au      8.468352      5.833603      9.290702
  Au      9.699887      8.195346     10.206121
  Au      4.950343      6.924898      6.727712
  Au      5.534158      9.257560      8.337748
  Au      7.757215     10.385636      9.742792
  Au      4.610727      6.943041      9.487685
  Au      6.257125      5.168139     10.894052
  Au      6.166702      4.852776      8.118229
  Au      6.938183      7.881518     10.636070
  Fe      7.975784      8.321610      8.051442
16
Coordinates from ORCA-job pbe E -3300.910532921485
  Au      9.181018      8.707606      5.643802
  Au      6.424893      8.834004      5.491362
  Au     10.128877      9.928244      8.068650
  Au     10.272263      7.035437      7.547835
  Au      7.601992     10.812376      7.020711
  Au      7.758443      6.286445      6.398681
  Au      8.469458      5.835125      9.292306
  Au      9.702992      8.198715     10.204995
  Au      4.955878      6.927492      6.730263
  Au      5.533125      9.260570      8.339913
  Au      7.759102     10.385016      9.744459
  Au      4.610627      6.945246      9.488551
  Au      6.251289      5.165681     10.891000
  Au      6.168259      4.851723      8.116990
  Au      6.941290      7.881019     10.636814
  Fe      7.969737      8.318180      8.050162
16
Coordinates from ORCA-job pbe E -3300.910557239597
  Au      9.178351      8.702914      5.645366
  Au      6.423057      8.836563      5.484705
  Au     10.126641      9.927889      8.066178
  Au     10.273868      7.037945      7.552160
  Au      7.598200     10.809449      7.023279
  Au      7.763221      6.282342      6.396058
  Au      8.469955      5.837234      9.292798
  Au      9.705669      8.200939     10.205235
  Au      4.963421      6.931668      6.732413
  Au      5.530635      9.266234      8.343710
  Au      7.763644     10.383545      9.745897
  Au      4.610705      6.946927      9.488867
  Au      6.247402      5.164045     10.889263
  Au      6.169502      4.851000      8.115685
  Au      6.943815      7.880728     10.636756
  Fe      7.961156      8.313456      8.048121
16
Coordinates from ORCA-job pbe E -3300.910579944856
  Au      9.174239      8.700214      5.647160
  Au      6.420576      8.839294      5.477386
  Au     10.124964      9.926514      8.065357
  Au     10.275422      7.042365      7.557006
  Au      7.595311     10.805091      7.024127
  Au      7.769472      6.276386      6.392770
  Au      8.469371      5.837929      9.292273
  Au      9.706149      8.201908     10.205483
  Au      4.972056      6.936526      6.734774
  Au      5.527094      9.273224      8.349291
  Au      7.769944     10.381394      9.746488
  Au      4.611525      6.947354      9.487523
  Au      6.246994      5.163565     10.889624
  Au      6.169534      4.851710      8.114938
  Au      6.944382      7.880835     10.636438
  Fe      7.952210      8.308566      8.045856
16
Coordinates from ORCA-job pbe E -3300.910595234469
  Au      9.170942      8.699626      5.648017
  Au      6.418478      8.841713      5.470957
  Au     10.123398      9.925120      8.064700
  Au     10.275665      7.047183      7.560427
  Au      7.594081     10.801919      7.023561
  Au      7.775266      6.270536      6.390364
  Au      8.468819      5.837234      9.291484
  Au      9.703686      8.199349     10.206449
  Au      4.979953      6.941284      6.735986
  Au      5.523955      9.279393      8.355164
  Au      7.775656     10.379660      9.745395
  Au      4.612779      6.946511      9.486201
  Au      6.249832      5.164572     10.891609
  Au      6.169209      4.853118      8.114954
  Au      6.942363      7.880823     10.637276
  Fe      7.945159      8.304836      8.043950
16
Coordinates from ORCA-job pbe E -3300.910602018352
  Au      9.169131      8.700449      5.647209
  Au      6.418336      8.844128      5.467524
  Au     10.121944      9.923460      8.064957
  Au     10.275388      7.049953      7.560973
  Au      7.593359     10.800743      7.021706
  Au      7.779233      6.266748      6.389896
  Au      8.468271      5.834658      9.291373
  Au      9.700180      8.197512     10.207032
  Au      4.985117      6.944796      6.736859
  Au      5.522712      9.282505      8.359772
  Au      7.778099     10.378575      9.743916
  Au      4.613852      6.945529      9.484996
  Au      6.252684      5.165188     10.893162
  Au      6.168525      4.854173      8.115870
  Au      6.940684      7.881528     10.638308
  Fe      7.941726      8.302931      8.042940
16
Coordinates from ORCA-job pbe E -3300.910604676968
  Au      9.168689      8.700714      5.645794
  Au      6.418867      8.845535      5.465507
  Au     10.120471      9.922433      8.064799
  Au     10.274596      7.050958      7.560646
  Au      7.592941     10.801387      7.020638
  Au      7.781140      6.264874      6.390851
  Au      8.469126      5.833932      9.291482
  Au      9.698383      8.194898     10.206872
  Au      4.988270      6.946666      6.736825
  Au      5.522655      9.283629      8.362707
  Au      7.778877     10.378974      9.742768
  Au      4.614137      6.944255      9.484827
  Au      6.254046      5.166023     10.893965
  Au      6.168135      4.854846      8.116131
  Au      6.938546      7.881509     10.640064
  Fe      7.940363      8.302244      8.042618
