15
E=  -1599.80939305;c=0;m=5
Au      5.333392250322680      7.509488341158210      6.912622434266600
Au      8.848873502613300     10.393908755540650      5.714518546096080
Au      6.044389180542240     10.290729290697000      6.551598993198500
Au      7.155718350933760      8.225978789531640      4.897821540122750
Au      9.826763358020580      7.675040707888550      5.570455544330800
Au      7.706065471246020      5.913822385015450      6.456142878542600
Au      5.973003947869790      9.322568784558429      9.277332719537560
Au      9.696735802887090      6.537198328829730      8.441956931571990
Au      8.683640088177601      8.685277309778090     10.070861868872569
Au      8.112055233073830     10.936819644491020      8.433724726666419
Au      7.091665012070470      6.441354331647030      9.219941951866090
Au      4.443517869339130      7.024970900629520      9.488422327908269
Au     10.466469950122249      9.487814111660519      7.935128136126000
Au     12.012545574915110      7.303770270609790      7.228151264422110
Fe      7.914084147866210      8.441182827964370      7.464195886471650
