15
Coordinates from ORCA-job pbe E -3165.077364611665
  Au      5.333392      7.509488      6.912622
  Au      8.848874     10.393909      5.714519
  Au      6.044389     10.290729      6.551599
  Au      7.155718      8.225979      4.897822
  Au      9.826763      7.675041      5.570456
  Au      7.706065      5.913822      6.456143
  Au      5.973004      9.322569      9.277333
  Au      9.696736      6.537198      8.441957
  Au      8.683640      8.685277     10.070862
  Au      8.112055     10.936820      8.433725
  Au      7.091665      6.441354      9.219942
  Au      4.443518      7.024971      9.488422
  Au     10.466470      9.487814      7.935128
  Au     12.012546      7.303770      7.228151
  Fe      7.914084      8.441183      7.464196
15
Coordinates from ORCA-job pbe E -3165.077889881296
  Au      5.374590      7.517538      6.905294
  Au      8.835207     10.369863      5.736792
  Au      6.070217     10.268460      6.562344
  Au      7.167426      8.209934      4.934335
  Au      9.787935      7.679908      5.587453
  Au      7.702082      5.956868      6.452269
  Au      6.010635      9.320958      9.257895
  Au      9.673410      6.541046      8.444665
  Au      8.670593      8.702966     10.033147
  Au      8.114888     10.895846      8.436440
  Au      7.112474      6.447292      9.209687
  Au      4.512115      7.041930      9.457074
  Au     10.424759      9.482298      7.940249
  Au     11.937753      7.317321      7.238652
  Fe      7.914836      8.437697      7.466578
15
Coordinates from ORCA-job pbe E -3165.079030818042
  Au      5.355622      7.511145      6.899124
  Au      8.835365     10.378839      5.729981
  Au      6.065972     10.277478      6.556868
  Au      7.162708      8.211691      4.917847
  Au      9.800451      7.674358      5.571904
  Au      7.700661      5.944374      6.447386
  Au      5.996971      9.329408      9.271244
  Au      9.687702      6.525742      8.452195
  Au      8.673928      8.704862     10.046104
  Au      8.115636     10.912729      8.439391
  Au      7.106251      6.431264      9.223682
  Au      4.474004      7.040384      9.468349
  Au     10.442604      9.491560      7.944822
  Au     11.975990      7.319321      7.226737
  Fe      7.915055      8.436771      7.467243
15
Coordinates from ORCA-job pbe E -3165.079071075475
  Au      5.352751      7.508400      6.900370
  Au      8.836324     10.381335      5.728152
  Au      6.064071     10.279956      6.555796
  Au      7.159333      8.211633      4.905681
  Au      9.803551      7.671558      5.571271
  Au      7.700561      5.939135      6.448556
  Au      5.994581      9.327927      9.274521
  Au      9.686805      6.523097      8.454254
  Au      8.674505      8.703364     10.051038
  Au      8.116372     10.925117      8.442357
  Au      7.109134      6.428512      9.225044
  Au      4.493168      7.043447      9.460390
  Au     10.446379      9.490001      7.947278
  Au     11.955991      7.321077      7.229827
  Fe      7.915395      8.435367      7.468341
15
Coordinates from ORCA-job pbe E -3165.079200677079
  Au      5.355205      7.509835      6.892306
  Au      8.835549     10.376828      5.732189
  Au      6.067343     10.275803      6.558457
  Au      7.159491      8.209997      4.905052
  Au      9.796841      7.672489      5.565921
  Au      7.699798      5.942774      6.448728
  Au      5.999081      9.334813      9.274175
  Au      9.683630      6.517333      8.459341
  Au      8.672614      8.705575     10.048231
  Au      8.116924     10.925534      8.443101
  Au      7.115849      6.422709      9.227675
  Au      4.494158      7.044157      9.459151
  Au     10.441966      9.496149      7.950497
  Au     11.954701      7.322048      7.228573
  Fe      7.915770      8.433881      7.469478
15
Coordinates from ORCA-job pbe E -3165.079224120144
  Au      5.357748      7.509771      6.883776
  Au      8.832722     10.372129      5.737204
  Au      6.073075     10.272015      6.560277
  Au      7.159527      8.208163      4.903759
  Au      9.789745      7.671574      5.560083
  Au      7.698869      5.944337      6.449717
  Au      6.004510      9.341316      9.275506
  Au      9.692591      6.509882      8.462338
  Au      8.670685      8.707157     10.047460
  Au      8.117541     10.926414      8.443532
  Au      7.111549      6.413875      9.235439
  Au      4.495668      7.051471      9.452739
  Au     10.437842      9.501494      7.956165
  Au     11.950196      7.330189      7.222693
  Fe      7.916655      8.430139      7.472187
15
Coordinates from ORCA-job pbe E -3165.079253611123
  Au      5.356613      7.509331      6.881286
  Au      8.834214     10.371384      5.737812
  Au      6.072422     10.271554      6.560978
  Au      7.158844      8.206676      4.900777
  Au      9.789157      7.670733      5.557207
  Au      7.699334      5.944163      6.453313
  Au      6.004634      9.343250      9.277150
  Au      9.687609      6.508126      8.464928
  Au      8.669770      8.705106     10.047429
  Au      8.118069     10.929086      8.444707
  Au      7.118048      6.411746      9.235165
  Au      4.498685      7.054508      9.449115
  Au     10.438449      9.502986      7.958682
  Au     11.945860      7.333397      7.220457
  Fe      7.917213      8.427878      7.473870
15
Coordinates from ORCA-job pbe E -3165.079259905278
  Au      5.355578      7.510056      6.880943
  Au      8.834779     10.372556      5.737064
  Au      6.071628     10.272861      6.560281
  Au      7.158588      8.207478      4.900198
  Au      9.789611      7.671148      5.556086
  Au      7.699533      5.943886      6.454615
  Au      6.003827      9.343648      9.277211
  Au      9.687780      6.509434      8.464012
  Au      8.669527      8.704674     10.048065
  Au      8.117633     10.930049      8.443387
  Au      7.117798      6.412421      9.234633
  Au      4.501448      7.051113      9.450506
  Au     10.439040      9.503290      7.958988
  Au     11.944822      7.329865      7.222622
  Fe      7.917327      8.427446      7.474265
15
Coordinates from ORCA-job pbe E -3165.079266314844
  Au      5.354367      7.511040      6.880591
  Au      8.835259     10.372260      5.737671
  Au      6.072137     10.273143      6.560214
  Au      7.158807      8.207331      4.901110
  Au      9.790059      7.671490      5.554834
  Au      7.699679      5.942974      6.456662
  Au      6.003170      9.343724      9.277365
  Au      9.689199      6.510272      8.463079
  Au      8.669072      8.704225     10.049465
  Au      8.117259     10.929148      8.441784
  Au      7.116826      6.412061      9.234932
  Au      4.500712      7.052332      9.449158
  Au     10.439694      9.502834      7.959923
  Au     11.944800      7.331879      7.220159
  Fe      7.917880      8.425212      7.475927
15
Coordinates from ORCA-job pbe E -3165.079273138739
  Au      5.353005      7.513387      6.879456
  Au      8.836342     10.372085      5.738520
  Au      6.072648     10.274091      6.560021
  Au      7.159040      8.206406      4.902498
  Au      9.789628      7.672382      5.552277
  Au      7.699370      5.942946      6.459027
  Au      6.002682      9.343903      9.277162
  Au      9.690401      6.510776      8.462409
  Au      8.667654      8.706003     10.051208
  Au      8.116677     10.927823      8.439269
  Au      7.116679      6.410907      9.235415
  Au      4.501348      7.052470      9.447491
  Au     10.439736      9.502382      7.962197
  Au     11.944938      7.333039      7.217014
  Fe      7.918771      8.421326      7.478912
15
Coordinates from ORCA-job pbe E -3165.079276249519
  Au      5.351871      7.516084      6.878626
  Au      8.837413     10.371625      5.739515
  Au      6.074030     10.275151      6.559814
  Au      7.159365      8.206046      4.903484
  Au      9.789665      7.674061      5.551244
  Au      7.698854      5.943031      6.459631
  Au      6.002394      9.343703      9.276492
  Au      9.690948      6.511766      8.461426
  Au      8.666694      8.709824     10.053297
  Au      8.116119     10.927135      8.436127
  Au      7.118191      6.409702      9.235555
  Au      4.500361      7.050103      9.447811
  Au     10.439625      9.500479      7.963318
  Au     11.943620      7.333110      7.215144
  Fe      7.919770      8.418106      7.481391
15
Coordinates from ORCA-job pbe E -3165.079278222184
  Au      5.351384      7.518759      6.879819
  Au      8.837623     10.371609      5.740202
  Au      6.074592     10.275915      6.560004
  Au      7.158826      8.205929      4.904105
  Au      9.789433      7.675277      5.550402
  Au      7.697797      5.943292      6.459050
  Au      6.001811      9.341606      9.275013
  Au      9.690164      6.511557      8.461553
  Au      8.665642      8.714424     10.055270
  Au      8.114979     10.927100      8.433654
  Au      7.118826      6.409809      9.235041
  Au      4.502241      7.048402      9.447109
  Au     10.439222      9.498963      7.964522
  Au     11.946380      7.331196      7.214003
  Fe      7.919998      8.416087      7.483127
15
Coordinates from ORCA-job pbe E -3165.079279668741
  Au      5.351958      7.517900      6.880027
  Au      8.837850     10.372008      5.739613
  Au      6.073943     10.276160      6.559835
  Au      7.158828      8.205903      4.903312
  Au      9.789491      7.674940      5.551541
  Au      7.698052      5.943720      6.458251
  Au      6.002180      9.341175      9.275365
  Au      9.690030      6.511274      8.461579
  Au      8.666124      8.714644     10.054581
  Au      8.115421     10.927882      8.434487
  Au      7.119025      6.409889      9.235051
  Au      4.501695      7.047858      9.447988
  Au     10.438875      9.498533      7.964135
  Au     11.945648      7.330675      7.214945
  Fe      7.919797      8.417364      7.482168
