16
E=  -1708.84951727;c=0;m=4
Au     10.122475937985961      8.826302578730809      7.725506544308740
Au      9.167080836402601      7.757989159433400     10.191884241891829
Au      6.028137618064550      5.793817024924980      8.321006909763240
Au      8.728755936268501      6.360291467952290      7.841722185163550
Au      8.497931164985481     10.624568175883310      9.231363851085540
Au      4.203378700818690      7.859980219125200      8.960225785050021
Au      7.550450466110210      9.549682005205280     11.672359829083179
Au      5.673039652115380     10.201753983714600      9.675273074442110
Au      6.376250014451050      7.186311241911070     10.686362129623410
Au      6.361936156250050      8.528712624379191      4.796196690114170
Au      6.986082313648690      5.852844604268650      5.693107233677630
Au      4.442364286709640      7.004115661281900      6.240256150560840
Au      9.049378539664040      7.767849037427150      5.314168366209990
Au      5.118080281188410      9.698186860194220      7.012774008372470
Au      7.857103958865750     10.097543358254500      6.589115384889850
Fe      7.155644836471050      8.418100297313570      8.571426635765450
