15
E=  -1570.96192310;c=0;m=3
Au      5.600718595033510      9.752510452713651      5.642306067651940
Au      6.786077742721400     11.128858607927629      7.772054545308060
Au      6.682418283789020      8.000497701738761      7.629655685777950
Au      7.200632426486930      9.500503726643609     10.011309738499030
Au      8.738947749817870      7.269046052533370      9.320600312711720
Au      9.380050036309060     10.101869044394469      8.325409855427949
Au      8.374184717116680     10.260485212612220      5.578582029939750
Au     11.080312264446549      9.760322690537080      6.121249305686680
Au     11.318846251939849      8.046609261164861      8.409828253785941
Au      9.111236134570721      5.649376874213290      5.124598514307750
Au     11.661828841263070      6.980192366426210      5.747918066684510
Au      9.725625042199690      8.297549986613189      4.057659807027970
Au      7.138420473229890      7.521193772363850      4.949131445270820
Au     10.063960348148919      5.499363001234300      7.727673407133220
Cr      9.261164592926820      7.800575728883540      6.674068194786710
