17
E=  -1788.18838299;c=0;m=5
Au      9.453766820377099      5.678028559268090      8.661159863700490
Au     10.401864106651679      6.854270049589260      6.157134862590650
Au      6.734962707265470      4.970030975276020      8.189467097619270
Au     10.114995727659560      9.721383257386840     12.154651892871421
Au      9.873792563981221      7.421722462934410     10.719144520399251
Au      8.290177744079180      9.925231319533010     10.145814656594110
Au      7.227687664863310      7.332062169911860      9.695759954766091
Au     11.842307843381869      7.178989554960340      8.686957551696640
Au     11.197531751288929      9.819421329705669      9.593274099964439
Au      8.566703642522659      4.813145708345130      6.047099306822370
Au      9.368039095042789     11.090364127692910      7.791123505771100
Au     11.443919969554180      9.352456432998270      6.873674283166930
Au      8.943021519803080      9.160556277632979      5.628990826929420
Au      6.363121721567790      8.296783965895850      5.249334365577780
Au      6.993498453909400      9.567653019621231      7.770425956676590
Au      5.249953382493480      7.317966297060250      7.651773333735160
Cr      7.789527775558290      7.065893852187870      6.982828951118290
