17
E=  -1798.52454423;c=0;m=6
Au      5.422062859057420      5.984679856381210      4.804573819043710
Au      8.148032926874510      5.139761851317520      8.463811925431299
Au      7.651014458093250      7.740961409334100      4.664614522498580
Au      3.576305463151680      6.853624839655570      6.784238378826730
Au      5.542442626598040      5.020175127720290      7.590878113997050
Au      4.970087606575550      8.787709257278900      5.229270768387530
Au      9.458742602550480      7.144492390419330      6.745991875998730
Au      3.974824698538170      9.445169327148820      7.766796782069420
Au      8.589925271416361      9.308493137725820      8.696560664690431
Au      9.963684076816380      7.011469448851550      9.509574944861381
Au      4.714448044945090      7.112179673060990      9.347605668622389
Au      7.293681807068510      7.238554938812770     10.272926761557850
Au      5.979795077438050      9.640890918161960      9.703341406830811
Au      6.521407774260820     10.467935874960240      7.100815385639370
Au      9.074397463204370      9.843442161298499      6.011304484217310
Au      6.939380230543030     10.475335714263830      4.307461107617600
Mn      7.482227092868270      5.719744043608640      6.147114779709770
