17
E=  -1817.55589139;c=0;m=5
Au      5.020805286659130      6.061572581979410     10.528826631692040
Au      5.274242434036260      8.980584216025450     10.356065787449539
Au      7.498005641042070      7.359512727548030     11.157535574033670
Au      7.845401886450950      9.507286205081430      9.230025002476189
Au      5.046084046643890      4.997138814310710      7.867202991305130
Au      5.455248633952040      9.706047710920449      7.588729751926600
Au      3.754071449761960      7.515671753071280      8.316329774527469
Au      9.809919197530190      4.572315763518700      8.029568031524031
Au      7.748386381357430      6.939602249722250      4.429062070717600
Au      7.479425468060780      5.137034002175560      6.566259720917640
Au      9.779584634049231      6.879670107058490      6.395306749600490
Au     10.221741748516891      9.322934247617830      7.748563274031970
Au      7.814607459350690      8.998771511096891      6.337879171114320
Au      5.484621444424940      7.232499862820970      6.061915424278560
Au      9.490319359695141      7.074741782722430      9.264899455285160
Au      7.451890686244640      4.972930146379440      9.499071918015719
Fe      6.411332012223770      7.302442277950700      8.601591441103761
