17
Coordinates from ORCA-job pbe E -3436.755326544208
  Au      5.020805      6.061573     10.528827
  Au      5.274242      8.980584     10.356066
  Au      7.498006      7.359513     11.157536
  Au      7.845402      9.507286      9.230025
  Au      5.046084      4.997139      7.867203
  Au      5.455249      9.706048      7.588730
  Au      3.754071      7.515672      8.316330
  Au      9.809919      4.572316      8.029568
  Au      7.748386      6.939602      4.429062
  Au      7.479425      5.137034      6.566260
  Au      9.779585      6.879670      6.395307
  Au     10.221742      9.322934      7.748563
  Au      7.814607      8.998772      6.337879
  Au      5.484621      7.232500      6.061915
  Au      9.490319      7.074742      9.264899
  Au      7.451891      4.972930      9.499072
  Fe      6.411332      7.302442      8.601591
17
Coordinates from ORCA-job pbe E -3436.758023840882
  Au      5.047197      6.057361     10.508821
  Au      5.294886      8.983062     10.345598
  Au      7.500886      7.357478     11.123890
  Au      7.838954      9.494071      9.224938
  Au      5.071625      5.015468      7.864778
  Au      5.478008      9.681004      7.590346
  Au      3.782086      7.510022      8.298795
  Au      9.780352      4.597124      8.030248
  Au      7.739987      6.939758      4.466282
  Au      7.473243      5.154248      6.581335
  Au      9.750779      6.882932      6.413913
  Au     10.192664      9.305474      7.754118
  Au      7.807196      8.985339      6.354649
  Au      5.491348      7.231519      6.078956
  Au      9.468946      7.077221      9.257329
  Au      7.444679      4.988293      9.491258
  Fe      6.422852      7.300384      8.593580
17
Coordinates from ORCA-job pbe E -3436.758299604800
  Au      5.048288      6.053797     10.507305
  Au      5.295836      8.993404     10.351870
  Au      7.509429      7.358024     11.116911
  Au      7.842877      9.498698      9.225604
  Au      5.079426      5.007189      7.854997
  Au      5.488066      9.679743      7.586561
  Au      3.782274      7.507828      8.295791
  Au      9.770264      4.603588      8.024810
  Au      7.739686      6.933615      4.477610
  Au      7.471096      5.158965      6.586155
  Au      9.736991      6.884023      6.422119
  Au     10.186678      9.302901      7.757023
  Au      7.804725      8.983046      6.360958
  Au      5.491497      7.230621      6.075594
  Au      9.462061      7.079840      9.256255
  Au      7.446612      4.985786      9.490202
  Fe      6.429881      7.299687      8.589067
17
Coordinates from ORCA-job pbe E -3436.758549657115
  Au      5.055559      6.053443     10.496260
  Au      5.304815      9.001366     10.352120
  Au      7.506210      7.360154     11.109400
  Au      7.843726      9.508591      9.231407
  Au      5.080933      5.002500      7.850914
  Au      5.492236      9.673761      7.591612
  Au      3.794012      7.502949      8.292293
  Au      9.766559      4.601254      8.020942
  Au      7.738133      6.926581      4.478647
  Au      7.464187      5.160281      6.591438
  Au      9.727567      6.887244      6.428496
  Au     10.188144      9.307133      7.760247
  Au      7.800523      8.984365      6.366838
  Au      5.483582      7.229789      6.072009
  Au      9.455913      7.083517      9.259283
  Au      7.443518      4.979536      9.494612
  Fe      6.440073      7.298291      8.582313
17
Coordinates from ORCA-job pbe E -3436.758939025275
  Au      5.061032      6.056846     10.477583
  Au      5.320923      9.012317     10.350766
  Au      7.495501      7.364419     11.107999
  Au      7.851903      9.529969      9.240506
  Au      5.069919      4.987256      7.846530
  Au      5.489514      9.670501      7.602246
  Au      3.811272      7.494072      8.293781
  Au      9.762613      4.603115      8.013371
  Au      7.739520      6.917456      4.483460
  Au      7.456010      5.164021      6.599535
  Au      9.709718      6.896528      6.442543
  Au     10.191022      9.308528      7.761464
  Au      7.798423      8.983118      6.374256
  Au      5.472313      7.227094      6.057326
  Au      9.448603      7.088323      9.259092
  Au      7.444760      4.962615      9.501290
  Fe      6.462639      7.294575      8.567086
17
Coordinates from ORCA-job pbe E -3436.759207999495
  Au      5.060917      6.062193     10.465977
  Au      5.329825      9.013789     10.347366
  Au      7.492135      7.363929     11.109080
  Au      7.857766      9.546121      9.247791
  Au      5.061195      4.977122      7.844012
  Au      5.487548      9.670274      7.604086
  Au      3.821325      7.489371      8.299387
  Au      9.763977      4.599988      8.014597
  Au      7.736412      6.915233      4.479366
  Au      7.446888      5.165010      6.606535
  Au      9.703028      6.902239      6.449179
  Au     10.196617      9.316810      7.764268
  Au      7.793167      8.983721      6.377586
  Au      5.462934      7.224944      6.047738
  Au      9.442685      7.089250      9.262811
  Au      7.444455      4.950220      9.507099
  Fe      6.484814      7.290542      8.551954
17
Coordinates from ORCA-job pbe E -3436.759498497134
  Au      5.062813      6.070132     10.459397
  Au      5.336028      9.006167     10.339215
  Au      7.488360      7.361289     11.115046
  Au      7.862501      9.556371      9.252020
  Au      5.049199      4.970693      7.845241
  Au      5.481266      9.672480      7.603996
  Au      3.830512      7.491026      8.304925
  Au      9.766543      4.600301      8.016425
  Au      7.735061      6.916320      4.478261
  Au      7.441829      5.168003      6.612430
  Au      9.698845      6.905936      6.453291
  Au     10.195400      9.321102      7.767074
  Au      7.788865      8.981497      6.380660
  Au      5.456032      7.223119      6.042367
  Au      9.436430      7.089138      9.263773
  Au      7.442978      4.941487      9.511854
  Fe      6.513026      7.285694      8.532857
17
Coordinates from ORCA-job pbe E -3436.759820238703
  Au      5.065158      6.077703     10.458614
  Au      5.335344      8.989653     10.328815
  Au      7.489967      7.356566     11.124491
  Au      7.859668      9.558066      9.255138
  Au      5.041813      4.973556      7.850003
  Au      5.474878      9.679121      7.598472
  Au      3.835645      7.496251      8.309529
  Au      9.767478      4.602066      8.021063
  Au      7.732570      6.920360      4.478270
  Au      7.439636      5.171797      6.617542
  Au      9.701320      6.904196      6.451506
  Au     10.190901      9.323156      7.769388
  Au      7.784057      8.978930      6.381711
  Au      5.452101      7.222577      6.043313
  Au      9.430861      7.086733      9.264403
  Au      7.440080      4.939255      9.514603
  Fe      6.544213      7.280769      8.511974
17
Coordinates from ORCA-job pbe E -3436.760039454271
  Au      5.069285      6.083511     10.461670
  Au      5.331106      8.972679     10.319487
  Au      7.494356      7.354015     11.132565
  Au      7.849803      9.551966      9.257250
  Au      5.039836      4.982202      7.855772
  Au      5.471504      9.686234      7.593050
  Au      3.838728      7.504208      8.311054
  Au      9.767746      4.603274      8.025336
  Au      7.730556      6.924611      4.480673
  Au      7.440474      5.174562      6.619473
  Au      9.707625      6.900726      6.446040
  Au     10.178012      9.318727      7.771441
  Au      7.780452      8.976321      6.383435
  Au      5.449207      7.224481      6.047417
  Au      9.426028      7.085742      9.264017
  Au      7.436113      4.940515      9.518094
  Fe      6.574855      7.276983      8.492057
17
Coordinates from ORCA-job pbe E -3436.760102795998
  Au      5.071369      6.083099     10.460956
  Au      5.326600      8.968102     10.320087
  Au      7.496396      7.354669     11.135222
  Au      7.841270      9.549810      9.260860
  Au      5.044293      4.990117      7.858649
  Au      5.471114      9.690393      7.591691
  Au      3.839669      7.503212      8.309699
  Au      9.762537      4.605109      8.025890
  Au      7.728868      6.923439      4.484372
  Au      7.442549      5.174897      6.619214
  Au      9.711966      6.894489      6.440950
  Au     10.172983      9.315858      7.771956
  Au      7.779212      8.976110      6.382209
  Au      5.447553      7.227589      6.049444
  Au      9.425427      7.083999      9.263851
  Au      7.435083      4.942929      9.519954
  Fe      6.588800      7.276937      8.483827
17
Coordinates from ORCA-job pbe E -3436.760133558457
  Au      5.075292      6.084745     10.464903
  Au      5.320948      8.967382     10.321153
  Au      7.496779      7.356968     11.133665
  Au      7.834910      9.547640      9.263348
  Au      5.049600      4.991890      7.857195
  Au      5.472777      9.689643      7.594410
  Au      3.840701      7.509412      8.308003
  Au      9.760642      4.603781      8.026321
  Au      7.727450      6.922560      4.486156
  Au      7.444355      5.171684      6.615464
  Au      9.716509      6.891993      6.436653
  Au     10.163943      9.311455      7.773595
  Au      7.779177      8.976400      6.382254
  Au      5.445489      7.230498      6.049135
  Au      9.425959      7.084626      9.263800
  Au      7.434641      4.942822      9.523149
  Fe      6.596517      7.277257      8.479630
17
Coordinates from ORCA-job pbe E -3436.760155571629
  Au      5.074545      6.085033     10.461423
  Au      5.317889      8.970012     10.325534
  Au      7.496447      7.359889     11.131057
  Au      7.832865      9.550179      9.266237
  Au      5.052472      4.993846      7.857110
  Au      5.475468      9.689240      7.596845
  Au      3.842382      7.505304      8.308754
  Au      9.757967      4.602911      8.026513
  Au      7.725972      6.921079      4.487499
  Au      7.445061      5.168800      6.612792
  Au      9.718294      6.890539      6.434640
  Au     10.160444      9.309602      7.774419
  Au      7.779610      8.976788      6.380460
  Au      5.444435      7.232585      6.047361
  Au      9.427610      7.083781      9.263891
  Au      7.435622      4.942289      9.525028
  Fe      6.598604      7.278878      8.479269
17
Coordinates from ORCA-job pbe E -3436.760168085364
  Au      5.075574      6.086614     10.460219
  Au      5.314597      8.971747     10.329030
  Au      7.494563      7.362315     11.127986
  Au      7.832373      9.554826      9.269807
  Au      5.054942      4.992864      7.855582
  Au      5.477164      9.687481      7.600412
  Au      3.844544      7.504912      8.309283
  Au      9.754842      4.602828      8.026676
  Au      7.724532      6.919531      4.487862
  Au      7.445494      5.164860      6.609910
  Au      9.719270      6.889230      6.433659
  Au     10.158915      9.310182      7.775998
  Au      7.779984      8.976783      6.377754
  Au      5.443626      7.233186      6.045444
  Au      9.429604      7.081772      9.263845
  Au      7.436570      4.941457      9.525643
  Fe      6.599096      7.280167      8.479721
17
Coordinates from ORCA-job pbe E -3436.760173115813
  Au      5.075165      6.086742     10.459423
  Au      5.313825      8.972654     10.329235
  Au      7.495192      7.363720     11.127218
  Au      7.832678      9.556796      9.271258
  Au      5.054629      4.992455      7.855529
  Au      5.478757      9.687342      7.601511
  Au      3.845337      7.504866      8.309700
  Au      9.755180      4.601754      8.026848
  Au      7.724051      6.919535      4.487258
  Au      7.445265      5.162691      6.608119
  Au      9.719054      6.890054      6.433782
  Au     10.156316      9.310740      7.777486
  Au      7.780011      8.976048      6.376758
  Au      5.443879      7.232537      6.045386
  Au      9.430374      7.080948      9.263735
  Au      7.436258      4.941095      9.525687
  Fe      6.599715      7.280777      8.479900
