11
E=  -1164.96457974;c=0;m=3
Au      3.560298454154990      8.816203753844860      8.242354585637520
Au      6.264326218097440      5.745916073170060      8.848351914873120
Au      7.230765607702640      7.534094105345640     10.653893458919860
Au      5.037057500935490      9.363660830891590     10.536149766762231
Au      5.647991093788320     10.902711792815190      8.173234537865961
Au      5.369268706218620      9.086052392013050      6.011330826649830
Au      4.464535775289060      6.519457182073110      6.850182760610710
Au      7.766695792814080     10.184354638535989      9.936590913334831
Au      7.314781319070300      7.014396528409680      6.510994290111680
Au      8.030440697033420      9.620942608334200      7.172140791874120
Fe      6.139820284895630      8.286276254566650      8.446523183360171
