13
E=  -1352.94429602;c=0;m=5
Au      6.354818857070060      7.926721183453260     10.866264238360760
Au      6.426354711691630     10.232948839885291      9.350678073013290
Au      8.050711327673961      5.807661652592560     10.205018533221560
Au      9.202651739482359      8.417854519573069     10.227304385959799
Au      9.123991575013600      9.993590943033370      8.066345869079100
Au      4.891061657383400      7.922018777981450      8.483269315396880
Au      8.671438264763131     10.607495168607230      5.382765637747770
Au      8.773888562601240      5.644989371870830      7.541152550640810
Au      8.891585433227380      7.923351796210920      6.045016981173190
Au      6.292823717701700      6.591599472374590      6.499796053957800
Au      6.327099163140290      9.402570766084031      6.508446050057950
Au      7.107503354567060     11.975190832853780      7.313796825624690
Cr      7.510613855684220      7.754227215479620      8.470179735766401
