13
Coordinates from ORCA-job pbe E -2674.148361191249
  Au      6.354819      7.926721     10.866264
  Au      6.426355     10.232949      9.350678
  Au      8.050711      5.807662     10.205019
  Au      9.202652      8.417855     10.227304
  Au      9.123992      9.993591      8.066346
  Au      4.891062      7.922019      8.483269
  Au      8.671438     10.607495      5.382766
  Au      8.773889      5.644989      7.541153
  Au      8.891585      7.923352      6.045017
  Au      6.292824      6.591599      6.499796
  Au      6.327099      9.402571      6.508446
  Au      7.107503     11.975191      7.313797
  Cr      7.510614      7.754227      8.470180
13
Coordinates from ORCA-job pbe E -2674.150600469218
  Au      6.329138      7.937490     10.864797
  Au      6.452141     10.226961      9.346839
  Au      8.050412      5.795831     10.225143
  Au      9.246276      8.433944     10.239872
  Au      9.104996      9.995552      8.074534
  Au      4.882020      7.967917      8.470115
  Au      8.642402     10.567221      5.390066
  Au      8.778301      5.634114      7.520944
  Au      8.917847      7.941035      6.046932
  Au      6.279838      6.623018      6.465517
  Au      6.348476      9.390384      6.523946
  Au      7.072371     11.922123      7.322873
  Cr      7.520325      7.764630      8.468457
13
Coordinates from ORCA-job pbe E -2674.151595974506
  Au      6.303903      7.921026     10.862443
  Au      6.467995     10.224384      9.383729
  Au      8.056225      5.791250     10.246044
  Au      9.291856      8.422207     10.270038
  Au      9.098360     10.015940      8.092101
  Au      4.867293      8.000776      8.464022
  Au      8.628683     10.553113      5.347028
  Au      8.770863      5.620397      7.506349
  Au      8.962920      7.920751      6.052643
  Au      6.263291      6.640803      6.438531
  Au      6.352906      9.388248      6.512903
  Au      7.026821     11.936183      7.310286
  Cr      7.533426      7.765143      8.473917
13
Coordinates from ORCA-job pbe E -2674.152219831212
  Au      6.298310      7.897880     10.847790
  Au      6.486029     10.225625      9.399848
  Au      8.071442      5.817523     10.241967
  Au      9.307967      8.418131     10.268581
  Au      9.077874     10.019190      8.105695
  Au      4.867455      8.023345      8.454071
  Au      8.614161     10.522664      5.353813
  Au      8.749496      5.622619      7.504786
  Au      8.982040      7.915707      6.072397
  Au      6.258525      6.654960      6.430424
  Au      6.360643      9.393382      6.502168
  Au      7.007823     11.920029      7.305270
  Cr      7.542776      7.769166      8.473224
13
Coordinates from ORCA-job pbe E -2674.152569125928
  Au      6.287423      7.877512     10.832113
  Au      6.498346     10.222860      9.412164
  Au      8.099046      5.838560     10.245825
  Au      9.320234      8.423143     10.253974
  Au      9.058307     10.027964      8.112787
  Au      4.873633      8.049301      8.436646
  Au      8.615532     10.511098      5.362210
  Au      8.719089      5.603897      7.511448
  Au      9.003862      7.911165      6.084959
  Au      6.249870      6.661022      6.430859
  Au      6.353558      9.383831      6.488892
  Au      6.994203     11.919892      7.317775
  Cr      7.551439      7.769976      8.470382
13
Coordinates from ORCA-job pbe E -2674.152822321407
  Au      6.273020      7.855389     10.818508
  Au      6.505108     10.213746      9.428020
  Au      8.135845      5.848886     10.256888
  Au      9.331619      8.426267     10.239548
  Au      9.039291     10.052238      8.109030
  Au      4.876089      8.073843      8.420690
  Au      8.616383     10.508487      5.377027
  Au      8.686446      5.581403      7.512686
  Au      9.017931      7.898782      6.108119
  Au      6.242642      6.654189      6.436862
  Au      6.349256      9.395828      6.464867
  Au      6.989637     11.921321      7.320626
  Cr      7.561273      7.769841      8.467162
13
Coordinates from ORCA-job pbe E -2674.152942835446
  Au      6.266376      7.838867     10.814882
  Au      6.503559     10.215929      9.436727
  Au      8.152701      5.844741     10.266365
  Au      9.335695      8.436032     10.227965
  Au      9.036905     10.064808      8.112083
  Au      4.874802      8.085587      8.413207
  Au      8.624108     10.501689      5.374697
  Au      8.673232      5.566384      7.509450
  Au      9.017291      7.895256      6.120553
  Au      6.244634      6.659008      6.438735
  Au      6.344019      9.395983      6.457319
  Au      6.985624     11.925649      7.322770
  Cr      7.565596      7.770287      8.465283
13
Coordinates from ORCA-job pbe E -2674.152990149557
  Au      6.266853      7.832564     10.808368
  Au      6.501366     10.211697      9.437515
  Au      8.157700      5.844289     10.271953
  Au      9.335470      8.438318     10.226117
  Au      9.039537     10.076846      8.112112
  Au      4.874364      8.093285      8.412256
  Au      8.626816     10.500880      5.368599
  Au      8.666848      5.554355      7.509138
  Au      9.015210      7.892169      6.126541
  Au      6.247734      6.663380      6.440134
  Au      6.343491      9.398569      6.455505
  Au      6.980880     11.922010      7.327933
  Cr      7.568274      7.771858      8.463864
13
Coordinates from ORCA-job pbe E -2674.153002738109
  Au      6.269938      7.830102     10.807879
  Au      6.498095     10.210768      9.437482
  Au      8.159145      5.844032     10.270640
  Au      9.332930      8.440746     10.226985
  Au      9.041582     10.079608      8.113368
  Au      4.871336      8.092404      8.413254
  Au      8.628848     10.496196      5.365494
  Au      8.666549      5.552244      7.508892
  Au      9.010292      7.893117      6.128167
  Au      6.249844      6.664458      6.440161
  Au      6.344475      9.401586      6.455473
  Au      6.982754     11.921359      7.329042
  Cr      7.568754      7.773600      8.463196
13
Coordinates from ORCA-job pbe E -2674.153009689431
  Au      6.272252      7.830405     10.807479
  Au      6.497101     10.209979      9.436309
  Au      8.159977      5.844448     10.268483
  Au      9.331249      8.442712     10.229102
  Au      9.042309     10.080547      8.114186
  Au      4.870266      8.091443      8.411846
  Au      8.628710     10.494647      5.364405
  Au      8.666487      5.552306      7.508912
  Au      9.007693      7.890696      6.128925
  Au      6.249992      6.665583      6.439977
  Au      6.345076      9.402161      6.456929
  Au      6.983991     11.919957      7.331126
  Cr      7.569440      7.775337      8.462354
13
Coordinates from ORCA-job pbe E -2674.153017923330
  Au      6.275219      7.830359     10.806974
  Au      6.494825     10.209194      9.435500
  Au      8.161756      5.845331     10.265117
  Au      9.328717      8.445680     10.233064
  Au      9.042826     10.080878      8.115549
  Au      4.869570      8.089334      8.411256
  Au      8.629242     10.492429      5.364284
  Au      8.665419      5.551805      7.509171
  Au      9.006194      7.888863      6.127322
  Au      6.248574      6.665585      6.439872
  Au      6.345403      9.402773      6.458419
  Au      6.986474     11.920007      7.332270
  Cr      7.570322      7.777983      8.461235
13
Coordinates from ORCA-job pbe E -2674.153028297633
  Au      6.278815      7.829845     10.805654
  Au      6.492062     10.209533      9.434707
  Au      8.165132      5.846269     10.260693
  Au      9.324465      8.450906     10.239320
  Au      9.043630     10.081080      8.117929
  Au      4.869673      8.085715      8.411617
  Au      8.630166     10.490584      5.366085
  Au      8.662294      5.550111      7.508919
  Au      9.005165      7.884837      6.123786
  Au      6.246030      6.664881      6.439790
  Au      6.345453      9.402973      6.459613
  Au      6.989454     11.921055      7.333076
  Cr      7.572205      7.782429      8.458845
13
Coordinates from ORCA-job pbe E -2674.153034548804
  Au      6.280814      7.828852     10.804897
  Au      6.491248     10.210333      9.435188
  Au      8.167002      5.846632     10.258615
  Au      9.320892      8.453813     10.243998
  Au      9.044642     10.081837      8.119154
  Au      4.870874      8.083901      8.412796
  Au      8.631003     10.489278      5.368746
  Au      8.659224      5.548682      7.507314
  Au      9.005496      7.882726      6.121151
  Au      6.244690      6.664502      6.439928
  Au      6.344692      9.402126      6.460015
  Au      6.990101     11.921801      7.331525
  Cr      7.573864      7.785737      8.456706
13
Coordinates from ORCA-job pbe E -2674.153039710447
  Au      6.282860      7.828334     10.804912
  Au      6.492129     10.211588      9.434818
  Au      8.167064      5.846710     10.257521
  Au      9.316653      8.456469     10.247488
  Au      9.046601     10.081654      8.121144
  Au      4.872572      8.082842      8.415796
  Au      8.631893     10.489996      5.372158
  Au      8.656040      5.546995      7.505102
  Au      9.006976      7.880764      6.118208
  Au      6.244317      6.663101      6.440092
  Au      6.343221      9.401388      6.459023
  Au      6.988554     11.921594      7.329685
  Cr      7.575661      7.788786      8.454088
13
Coordinates from ORCA-job pbe E -2674.153043009159
  Au      6.284015      7.827902     10.805895
  Au      6.493849     10.212003      9.435254
  Au      8.165901      5.846321     10.256875
  Au      9.313853      8.456355     10.249645
  Au      9.048239     10.082843      8.121422
  Au      4.873866      8.083218      8.418000
  Au      8.632004     10.489191      5.374347
  Au      8.654446      5.546818      7.502669
  Au      9.008852      7.881198      6.118228
  Au      6.244603      6.663513      6.440405
  Au      6.341529      9.399835      6.457855
  Au      6.986657     11.920683      7.326973
  Cr      7.576728      7.790340      8.452467
13
Coordinates from ORCA-job pbe E -2674.153045483964
  Au      6.285212      7.828333     10.807260
  Au      6.495523     10.211712      9.434654
  Au      8.163762      5.845692     10.256011
  Au      9.312018      8.455936     10.250156
  Au      9.049693     10.083181      8.122082
  Au      4.874481      8.084184      8.420137
  Au      8.631628     10.489121      5.375028
  Au      8.654391      5.547098      7.501264
  Au      9.011059      7.882143      6.119400
  Au      6.244798      6.663649      6.440747
  Au      6.339872      9.399157      6.456166
  Au      6.984894     11.919157      7.325638
  Cr      7.577212      7.790857      8.451493
13
Coordinates from ORCA-job pbe E -2674.153047322623
  Au      6.286667      7.829090     10.808572
  Au      6.496803     10.211485      9.433745
  Au      8.161518      5.844824     10.254121
  Au      9.310340      8.455399     10.250845
  Au      9.050925     10.083599      8.122598
  Au      4.874696      8.085082      8.422091
  Au      8.630746     10.488666      5.374935
  Au      8.655278      5.547630      7.500235
  Au      9.013821      7.883495      6.121556
  Au      6.244176      6.663809      6.441347
  Au      6.337978      9.398513      6.454420
  Au      6.984108     11.917545      7.324880
  Cr      7.577486      7.791083      8.450691
13
Coordinates from ORCA-job pbe E -2674.153048151682
  Au      6.287668      7.829563     10.808696
  Au      6.496921     10.211340      9.433466
  Au      8.160671      5.844223     10.252461
  Au      9.309371      8.455637     10.251525
  Au      9.051277     10.083757      8.123070
  Au      4.874714      8.085624      8.423065
  Au      8.630047     10.488136      5.374669
  Au      8.656015      5.547804      7.499630
  Au      9.015610      7.884135      6.123113
  Au      6.243160      6.663736      6.441959
  Au      6.336932      9.398152      6.453652
  Au      6.984507     11.916855      7.324548
  Cr      7.577649      7.791260      8.450181
