11
E=  -1135.56881698;c=0;m=5
Au      9.927712261597520      5.207980664884920      7.633187184598830
Au      8.895460316734439      3.018775330612100      9.114119498214089
Au     10.279579673624781      4.936697415535820     10.673576072501151
Au      8.766204895910780      7.608023267714470      7.689760584390200
Au      6.694770169625280      6.754780023265580     11.233817716305010
Au      9.438774365877091      7.571471826068770     10.622737775122239
Au      7.457251444568500      4.096684546192130     11.302807543623411
Au      6.747507741889230      9.355889495160440      7.930737934021500
Au      6.389827797464060      4.155751685671570      8.422156006170219
Au      6.037059423073720      6.796453938590300      8.297689747370260
Cr      8.165816919634580      5.704226776303880      9.423517787683110
