15
E=  -1600.11072755;c=0;m=3
Au      7.760547453359030     10.142632411840671      6.232472672240100
Au      6.693052503069650     10.109576436982501      3.739865432471280
Au      5.453477233017310      6.063202395505920      5.604333643848530
Au      7.605683448483290      7.662977793552890      4.606497656423050
Au      4.394794644912140      7.399940697749900      7.827184640724440
Au      5.124453881583870      8.904819687291070      5.652535060590740
Au      5.877769103993990      9.733722554162251      8.377472442915071
Au      9.150161128015590      5.850604667864890      8.866601623640850
Au      8.127073550582940      5.531903298740250      6.254084066847830
Au      8.561444705962780      7.894939978092210     10.801168686782299
Au      9.493716275920530      7.923778980423350      6.852924916727240
Au      5.751438383145640      7.552053654367770     10.300005787795991
Au      8.705799323966410      9.864717087125401      8.804493839473340
Au      6.315288397244710      5.384242086638170      8.453634832895739
Fe      7.456251396742120      7.670259359662770      8.446201426623460
