15
Coordinates from ORCA-job pbe E -3165.045536926608
  Au      7.760547     10.142632      6.232473
  Au      6.693053     10.109576      3.739865
  Au      5.453477      6.063202      5.604334
  Au      7.605683      7.662978      4.606498
  Au      4.394795      7.399941      7.827185
  Au      5.124454      8.904820      5.652535
  Au      5.877769      9.733723      8.377472
  Au      9.150161      5.850605      8.866602
  Au      8.127074      5.531903      6.254084
  Au      8.561445      7.894940     10.801169
  Au      9.493716      7.923779      6.852925
  Au      5.751438      7.552054     10.300006
  Au      8.705799      9.864717      8.804494
  Au      6.315288      5.384242      8.453635
  Fe      7.456251      7.670259      8.446201
15
Coordinates from ORCA-job pbe E -3165.047443077029
  Au      7.752981     10.121193      6.239872
  Au      6.694698     10.085003      3.772430
  Au      5.473485      6.093354      5.616354
  Au      7.599111      7.659865      4.634239
  Au      4.416725      7.404778      7.816392
  Au      5.141437      8.890055      5.670483
  Au      5.878486      9.730045      8.362240
  Au      9.155478      5.840050      8.854064
  Au      8.115150      5.553622      6.257543
  Au      8.556702      7.901573     10.781558
  Au      9.481882      7.926587      6.842779
  Au      5.734254      7.552239     10.296656
  Au      8.706484      9.870649      8.799397
  Au      6.313649      5.388523      8.444895
  Fe      7.450430      7.671834      8.430574
15
Coordinates from ORCA-job pbe E -3165.048852494598
  Au      7.751969     10.108472      6.252422
  Au      6.690937     10.094586      3.750738
  Au      5.484090      6.114396      5.617094
  Au      7.601571      7.654460      4.641018
  Au      4.432981      7.401514      7.824080
  Au      5.141036      8.886513      5.678716
  Au      5.875846      9.735949      8.352116
  Au      9.170988      5.817129      8.850507
  Au      8.110405      5.560728      6.274030
  Au      8.549902      7.906958     10.758246
  Au      9.481043      7.931851      6.831494
  Au      5.709616      7.548258     10.309671
  Au      8.715847      9.880597      8.810817
  Au      6.311949      5.378174      8.453672
  Fe      7.442772      7.669787      8.414855
15
Coordinates from ORCA-job pbe E -3165.049998598310
  Au      7.745014     10.094813      6.252036
  Au      6.694416     10.093420      3.759305
  Au      5.486222      6.124066      5.611055
  Au      7.604286      7.666842      4.637026
  Au      4.445233      7.395619      7.839272
  Au      5.146643      8.897884      5.673823
  Au      5.872470      9.746444      8.343207
  Au      9.183595      5.798708      8.849985
  Au      8.109889      5.561121      6.294828
  Au      8.539875      7.907352     10.733597
  Au      9.484451      7.939058      6.819456
  Au      5.691268      7.544239     10.322062
  Au      8.722164      9.891048      8.814225
  Au      6.312274      5.362482      8.473539
  Fe      7.433151      7.666273      8.396059
15
Coordinates from ORCA-job pbe E -3165.051010342416
  Au      7.741642     10.084311      6.256515
  Au      6.696762     10.101797      3.754313
  Au      5.488193      6.129198      5.609860
  Au      7.611800      7.669386      4.634047
  Au      4.463817      7.389961      7.852269
  Au      5.143966      8.905945      5.675480
  Au      5.870558      9.757967      8.339590
  Au      9.186391      5.792517      8.849186
  Au      8.105840      5.566806      6.317894
  Au      8.524469      7.893095     10.714054
  Au      9.491223      7.946167      6.812151
  Au      5.685501      7.541421     10.324982
  Au      8.722716      9.896457      8.809712
  Au      6.315727      5.351409      8.495385
  Fe      7.422347      7.662934      8.374039
15
Coordinates from ORCA-job pbe E -3165.052061920058
  Au      7.737296     10.075921      6.256119
  Au      6.697962     10.106296      3.751471
  Au      5.488298      6.134168      5.604165
  Au      7.617356      7.670002      4.628849
  Au      4.482668      7.386019      7.858520
  Au      5.139314      8.912022      5.674916
  Au      5.868431      9.771585      8.339270
  Au      9.184846      5.796586      8.855556
  Au      8.098914      5.575855      6.335348
  Au      8.509177      7.873153     10.702001
  Au      9.501545      7.953494      6.806648
  Au      5.692986      7.540291     10.327556
  Au      8.720753      9.893700      8.808583
  Au      6.320306      5.340867      8.519353
  Fe      7.411098      7.659410      8.351122
15
Coordinates from ORCA-job pbe E -3165.053118557546
  Au      7.732969     10.068044      6.255031
  Au      6.698643     10.108090      3.750630
  Au      5.486639      6.138546      5.594929
  Au      7.621610      7.669489      4.623829
  Au      4.501188      7.383829      7.858891
  Au      5.134353      8.916338      5.674045
  Au      5.866738      9.783917      8.340843
  Au      9.179830      5.808750      8.864149
  Au      8.089925      5.587599      6.347442
  Au      8.499307      7.855948     10.699776
  Au      9.511929      7.959821      6.803250
  Au      5.708911      7.541619     10.327301
  Au      8.714317      9.880699      8.808747
  Au      6.325107      5.331105      8.542812
  Fe      7.399484      7.655578      8.327801
15
Coordinates from ORCA-job pbe E -3165.054081974874
  Au      7.728743     10.060173      6.254137
  Au      6.699159     10.108557      3.750851
  Au      5.484075      6.143978      5.582249
  Au      7.624958      7.668918      4.619408
  Au      4.518903      7.381630      7.856169
  Au      5.130003      8.919753      5.673062
  Au      5.864199      9.793966      8.343365
  Au      9.175512      5.821294      8.870794
  Au      8.079493      5.599708      6.356619
  Au      8.497378      7.848335     10.704473
  Au      9.521598      7.963932      6.800766
  Au      5.723607      7.544578     10.325935
  Au      8.706483      9.862307      8.812047
  Au      6.329258      5.320807      8.565199
  Fe      7.387584      7.651435      8.304401
15
Coordinates from ORCA-job pbe E -3165.054923124673
  Au      7.725249     10.052310      6.255022
  Au      6.699945     10.109257      3.751358
  Au      5.480650      6.150048      5.566739
  Au      7.628240      7.669068      4.615475
  Au      4.535632      7.377807      7.852723
  Au      5.126476      8.923382      5.672143
  Au      5.860540      9.801806      8.346575
  Au      9.174242      5.831073      8.875154
  Au      8.067993      5.610252      6.365030
  Au      8.500025      7.847919     10.710621
  Au      9.530524      7.965772      6.798831
  Au      5.733674      7.548934     10.325529
  Au      8.699271      9.844703      8.816073
  Au      6.332938      5.309828      8.587115
  Fe      7.375552      7.647213      8.281089
15
Coordinates from ORCA-job pbe E -3165.055644041611
  Au      7.722539     10.044933      6.257296
  Au      6.701011     10.110502      3.751922
  Au      5.476342      6.155996      5.549279
  Au      7.631879      7.669891      4.612189
  Au      4.551758      7.371805      7.849550
  Au      5.123703      8.927426      5.671659
  Au      5.855970      9.807774      8.350461
  Au      9.175273      5.839623      8.878198
  Au      8.055520      5.618785      6.373753
  Au      8.502469      7.848163     10.715092
  Au      9.538806      7.965632      6.797495
  Au      5.741215      7.554884     10.325967
  Au      8.693583      9.831024      8.819196
  Au      6.337186      5.299674      8.609237
  Fe      7.363699      7.643259      8.258184
15
Coordinates from ORCA-job pbe E -3165.056271892119
  Au      7.720435     10.038048      6.260572
  Au      6.702468     10.112057      3.753117
  Au      5.470940      6.161414      5.529864
  Au      7.635998      7.670947      4.609931
  Au      4.566985      7.363812      7.846243
  Au      5.121561      8.931565      5.672086
  Au      5.850958      9.812018      8.354929
  Au      9.177543      5.848799      8.879921
  Au      8.042084      5.625299      6.382169
  Au      8.503721      7.847103     10.718207
  Au      9.546265      7.963870      6.796955
  Au      5.748057      7.562844     10.326102
  Au      8.688942      9.820476      8.821288
  Au      6.342682      5.291322      8.632040
  Fe      7.352314      7.639796      8.236054
15
Coordinates from ORCA-job pbe E -3165.056830170005
  Au      7.718824     10.031646      6.264626
  Au      6.704334     10.113684      3.755217
  Au      5.464398      6.166419      5.508288
  Au      7.640488      7.671932      4.608892
  Au      4.580634      7.353904      7.842192
  Au      5.119972      8.935444      5.673570
  Au      5.845697      9.814601      8.359832
  Au      9.180865      5.858985      8.879753
  Au      8.027618      5.629519      6.389406
  Au      8.504631      7.845610     10.720869
  Au      9.552753      7.960649      6.797232
  Au      5.754209      7.573047     10.325288
  Au      8.685138      9.811837      8.823425
  Au      6.349680      5.285105      8.655724
  Fe      7.341708      7.636990      8.215164
15
Coordinates from ORCA-job pbe E -3165.057338603815
  Au      7.717688     10.025737      6.269406
  Au      6.706522     10.115167      3.758235
  Au      5.457002      6.171263      5.484947
  Au      7.645204      7.672797      4.609171
  Au      4.592272      7.342153      7.837155
  Au      5.118972      8.938901      5.676092
  Au      5.840313      9.815645      8.364807
  Au      9.185289      5.869978      8.877356
  Au      8.012140      5.631265      6.395094
  Au      8.505553      7.843875     10.723531
  Au      9.558097      7.956222      6.798120
  Au      5.759273      7.585419     10.323316
  Au      8.682125      9.804694      8.826036
  Au      6.358288      5.281209      8.680282
  Fe      7.332213      7.635046      8.195929
15
Coordinates from ORCA-job pbe E -3165.057813970908
  Au      7.717008     10.020429      6.274719
  Au      6.708926     10.116450      3.761972
  Au      5.449160      6.176112      5.460639
  Au      7.650044      7.673565      4.610725
  Au      4.601803      7.328749      7.831269
  Au      5.118543      8.941924      5.679532
  Au      5.834833      9.815383      8.369349
  Au      9.190761      5.881373      8.872758
  Au      7.995817      5.630574      6.399330
  Au      8.506265      7.841547     10.726069
  Au      9.562192      7.950890      6.799198
  Au      5.762983      7.599521     10.320225
  Au      8.679961      9.798915      8.829408
  Au      6.368542      5.279765      8.705638
  Fe      7.324114      7.634174      8.178645
15
Coordinates from ORCA-job pbe E -3165.058266468461
  Au      7.716783     10.015850      6.280371
  Au      6.711444     10.117518      3.766198
  Au      5.441316      6.181096      5.436264
  Au      7.654942      7.674301      4.613436
  Au      4.609401      7.313970      7.824840
  Au      5.118642      8.944602      5.683747
  Au      5.829267      9.814202      8.372872
  Au      9.197156      5.892596      8.866252
  Au      7.978869      5.627690      6.402458
  Au      8.506316      7.838155     10.728111
  Au      9.565032      7.945080      6.799905
  Au      5.765155      7.614644     10.316249
  Au      8.678616      9.794354      8.833569
  Au      6.380398      5.280767      8.731728
  Fe      7.317614      7.634546      8.163476
15
Coordinates from ORCA-job pbe E -3165.058698620898
  Au      7.717023     10.012187      6.286085
  Au      6.713907     10.118315      3.770592
  Au      5.433910      6.186387      5.412640
  Au      7.659898      7.675097      4.617094
  Au      4.615542      7.298163      7.818224
  Au      5.119169      8.947116      5.688577
  Au      5.823566      9.812672      8.374841
  Au      9.204283      5.902920      8.858358
  Au      7.961488      5.623103      6.405014
  Au      8.505299      7.833373     10.729292
  Au      9.566811      7.939309      6.799594
  Au      5.765655      7.629857     10.311795
  Au      8.677937      9.790668      8.838404
  Au      6.393680      5.283992      8.758514
  Fe      7.312784      7.636210      8.150451
15
Coordinates from ORCA-job pbe E -3165.059108449862
  Au      7.717744     10.009656      6.291564
  Au      6.716071     10.118701      3.774795
  Au      5.427246      6.192150      5.390230
  Au      7.664994      7.676052      4.621399
  Au      4.621013      7.281750      7.811725
  Au      5.119957      8.949720      5.693857
  Au      5.817621      9.811420      8.374983
  Au      9.211925      5.911683      8.849728
  Au      7.943819      5.617602      6.407654
  Au      8.503079      7.827122     10.729556
  Au      9.567949      7.934055      6.797713
  Au      5.764461      7.644285     10.307350
  Au      8.677563      9.787254      8.843564
  Au      6.408025      5.288913      8.785960
  Fe      7.309483      7.639007      8.139399
15
Coordinates from ORCA-job pbe E -3165.059493843184
  Au      7.718969     10.008472      6.296551
  Au      6.717690     10.118485      3.778537
  Au      5.421341      6.198418      5.368916
  Au      7.670310      7.677185      4.626033
  Au      4.626709      7.265158      7.805497
  Au      5.120804      8.952600      5.699429
  Au      5.811313      9.810853      8.373438
  Au      9.219924      5.918642      8.840869
  Au      7.925945      5.612097      6.410968
  Au      8.499845      7.819553     10.729219
  Au      9.568930      7.929544      6.794060
  Au      5.761724      7.657515     10.303259
  Au      8.677079      9.783401      8.848699
  Au      6.422971      5.294856      8.813979
  Fe      7.307398      7.642591      8.130022
15
Coordinates from ORCA-job pbe E -3165.059853175297
  Au      7.720727     10.008773      6.300931
  Au      6.718602     10.117498      3.781732
  Au      5.415965      6.205069      5.348170
  Au      7.675800      7.678432      4.630771
  Au      4.633333      7.248677      7.799509
  Au      5.121573      8.955758      5.705149
  Au      5.804635      9.811040      8.370626
  Au      9.228246      5.924044      8.832023
  Au      7.907871      5.607326      6.415310
  Au      8.495882      7.810839     10.728698
  Au      9.570075      7.925745      6.788823
  Au      5.757739      7.669702     10.299657
  Au      8.676205      9.778619      8.853603
  Au      6.438087      5.301259      8.842393
  Fe      7.306211      7.646593      8.122081
15
Coordinates from ORCA-job pbe E -3165.060183370639
  Au      7.723016     10.010531      6.304742
  Au      6.718766     10.115676      3.784447
  Au      5.410790      6.211889      5.327354
  Au      7.681276      7.679695      4.635511
  Au      4.641305      7.232395      7.793606
  Au      5.122260      8.959021      5.710897
  Au      5.797738      9.811775      8.367052
  Au      9.236930      5.928372      8.823274
  Au      7.889515      5.603704      6.420776
  Au      8.491392      7.801172     10.728177
  Au      9.571459      7.922499      6.782471
  Au      5.752848      7.681303     10.296565
  Au      8.674945      9.772893      8.858253
  Au      6.453032      5.307744      8.870901
  Fe      7.305681      7.650701      8.115449
15
Coordinates from ORCA-job pbe E -3165.060479690653
  Au      7.725768     10.013482      6.308164
  Au      6.718305     10.113152      3.786846
  Au      5.405492      6.218630      5.305937
  Au      7.686462      7.680887      4.640275
  Au      4.650723      7.216194      7.787587
  Au      5.122983      8.962113      5.716607
  Au      5.790921      9.812710      8.363213
  Au      9.245972      5.932066      8.814623
  Au      7.870726      5.601279      6.427230
  Au      8.486474      7.790878     10.727478
  Au      9.572949      7.919614      6.775653
  Au      5.747348      7.692743     10.293935
  Au      8.673596      9.766802      8.862724
  Au      6.467590      5.314124      8.899151
  Fe      7.305641      7.654697      8.110055
15
Coordinates from ORCA-job pbe E -3165.060738209489
  Au      7.728857     10.017188      6.311431
  Au      6.717493     10.110244      3.789132
  Au      5.399829      6.225072      5.283628
  Au      7.691083      7.681950      4.645160
  Au      4.661386      7.199808      7.781275
  Au      5.123929      8.964748      5.722266
  Au      5.784537      9.813525      8.359511
  Au      9.255243      5.935313      8.806042
  Au      7.851335      5.599768      6.434370
  Au      8.481155      7.780433     10.726114
  Au      9.574333      7.916950      6.769020
  Au      5.741406      7.704151     10.291672
  Au      8.672626      9.761316      8.867104
  Au      6.481715      5.320400      8.926881
  Fe      7.306026      7.658505      8.105869
15
Coordinates from ORCA-job pbe E -3165.060957766958
  Au      7.732147     10.021224      6.314718
  Au      6.716633     10.107310      3.791471
  Au      5.393682      6.231073      5.260414
  Au      7.694932      7.682858      4.650278
  Au      4.672964      7.182974      7.774551
  Au      5.125272      8.966701      5.727892
  Au      5.778883      9.814062      8.356219
  Au      9.264527      5.938018      8.797473
  Au      7.831203      5.598784      6.441873
  Au      8.475427      7.770320     10.723520
  Au      9.575460      7.914474      6.763076
  Au      5.735014      7.715325     10.289656
  Au      8.672442      9.757382      8.871393
  Au      6.495482      5.326671      8.953997
  Fe      7.306884      7.662194      8.102946
15
Coordinates from ORCA-job pbe E -3165.061139410960
  Au      7.735506     10.025277      6.318064
  Au      6.715953     10.104638      3.793936
  Au      5.387036      6.236556      5.236468
  Au      7.697886      7.683603      4.655721
  Au      4.685181      7.165543      7.767359
  Au      5.127146      8.967831      5.733497
  Au      5.774179      9.814315      8.353504
  Au      9.273603      5.939915      8.788833
  Au      7.810254      5.598046      6.449501
  Au      8.469271      7.760896     10.719228
  Au      9.576285      7.912254      6.758140
  Au      5.728030      7.725914     10.287774
  Au      8.673296      9.755674      8.875505
  Au      6.508975      5.333002      8.980504
  Fe      7.308348      7.665907      8.101442
15
Coordinates from ORCA-job pbe E -3165.061284761488
  Au      7.738788     10.029126      6.321379
  Au      6.715563     10.102414      3.796487
  Au      5.379941      6.241480      5.212070
  Au      7.699909      7.684197      4.661537
  Au      4.697897      7.147518      7.759684
  Au      5.129638      8.968077      5.739072
  Au      5.770580      9.814366      8.351471
  Au      9.282307      5.940686      8.780033
  Au      7.788478      5.597459      6.457129
  Au      8.462682      7.752369     10.712946
  Au      9.576835      7.910419      6.754405
  Au      5.720253      7.735582     10.285951
  Au      8.675278      9.756556      8.879306
  Au      6.522220      5.339346      9.006409
  Fe      7.310583      7.669775      8.101597
15
Coordinates from ORCA-job pbe E -3165.061394579143
  Au      7.741820     10.032596      6.324476
  Au      6.715463     10.100730      3.798965
  Au      5.372475      6.245841      5.187539
  Au      7.701060      7.684670      4.667699
  Au      4.711115      7.129051      7.751548
  Au      5.132775      8.967475      5.744567
  Au      5.768177      9.814331      8.350181
  Au      9.290535      5.940067      8.771012
  Au      7.765919      5.597117      6.464709
  Au      8.455713      7.744827     10.704650
  Au      9.577178      7.909112      6.751960
  Au      5.711510      7.744076     10.284159
  Au      8.678318      9.760071      8.882660
  Au      6.535163      5.345538      9.031684
  Fe      7.313731      7.673868      8.103669
15
Coordinates from ORCA-job pbe E -3165.061467859380
  Au      7.744414     10.035528      6.327119
  Au      6.715547     10.099559      3.801116
  Au      5.364728      6.249701      5.163162
  Au      7.701522      7.685067      4.674063
  Au      4.724965      7.110433      7.742993
  Au      5.136477      8.966189      5.749886
  Au      5.766959      9.814327      8.349634
  Au      9.298225      5.937958      8.761785
  Au      7.742679      5.597285      6.472246
  Au      8.448541      7.738261     10.694721
  Au      9.577403      7.908424      6.750782
  Au      5.701779      7.751267     10.282405
  Au      8.682158      9.765875      8.885461
  Au      6.547709      5.351338      9.056271
  Fe      7.317845      7.678159      8.107831
15
Coordinates from ORCA-job pbe E -3165.061501512436
  Au      7.746318     10.037689      6.329013
  Au      6.715640     10.098792      3.802591
  Au      5.357010      6.253136      5.139822
  Au      7.701585      7.685419      4.680134
  Au      4.739207      7.092606      7.734329
  Au      5.140400      8.964569      5.754722
  Au      5.766777      9.814422      8.349764
  Au      9.305093      5.934638      8.752800
  Au      7.719615      5.598307      6.479525
  Au      8.441744      7.732790     10.684377
  Au      9.577594      7.908339      6.750733
  Au      5.691643      7.756974     10.280769
  Au      8.686234      9.773006      8.887604
  Au      6.559388      5.356304      9.079387
  Fe      7.322703      7.682380      8.113906
15
Coordinates from ORCA-job pbe E -3165.061509338708
  Au      7.746032     10.037331      6.328728
  Au      6.715798     10.099148      3.802373
  Au      5.355042      6.253735      5.134722
  Au      7.701358      7.685508      4.681046
  Au      4.742855      7.088928      7.732133
  Au      5.141387      8.964080      5.755284
  Au      5.767642      9.814463      8.350373
  Au      9.306082      5.933253      8.751173
  Au      7.714185      5.599174      6.480979
  Au      8.440693      7.732523     10.682010
  Au      9.577549      7.908813      6.751733
  Au      5.689351      7.757286     10.280622
  Au      8.687235      9.775697      8.887394
  Au      6.561271      5.356272      9.083778
  Fe      7.324471      7.683159      8.117132
15
Coordinates from ORCA-job pbe E -3165.061527282627
  Au      7.743762     10.034447      6.326631
  Au      6.716339     10.100856      3.800621
  Au      5.351762      6.254336      5.127822
  Au      7.700908      7.685662      4.681006
  Au      4.749274      7.085033      7.728600
  Au      5.142777      8.963540      5.754996
  Au      5.770774      9.814150      8.352394
  Au      9.305753      5.929800      8.750253
  Au      7.706308      5.602361      6.482739
  Au      8.440759      7.735249     10.678732
  Au      9.576937      7.910326      6.755337
  Au      5.686540      7.754972     10.281091
  Au      8.688739      9.781906      8.885389
  Au      6.561805      5.353109      9.087539
  Fe      7.328514      7.683624      8.126326
15
Coordinates from ORCA-job pbe E -3165.061541807563
  Au      7.740740     10.030521      6.323855
  Au      6.716629     10.102447      3.797971
  Au      5.350485      6.254341      5.126684
  Au      7.700951      7.685624      4.678396
  Au      4.752333      7.086756      7.727217
  Au      5.142480      8.964099      5.753180
  Au      5.773644      9.813121      8.354563
  Au      9.302969      5.927230      8.752738
  Au      7.704874      5.606251      6.482457
  Au      8.443643      7.740611     10.679295
  Au      9.575918      7.911243      6.759009
  Au      5.687232      7.750323     10.282465
  Au      8.689074      9.786397      8.882459
  Au      6.558507      5.347787      9.084145
  Fe      7.331473      7.682621      8.135041
15
Coordinates from ORCA-job pbe E -3165.061555632525
  Au      7.737453     10.025977      6.320932
  Au      6.716459     10.103248      3.794802
  Au      5.350774      6.254665      5.128867
  Au      7.701800      7.685407      4.673450
  Au      4.753536      7.092568      7.727172
  Au      5.140478      8.965987      5.750306
  Au      5.775491      9.811027      8.356465
  Au      9.298480      5.925263      8.758192
  Au      7.707828      5.611184      6.481013
  Au      8.448739      7.748218     10.682788
  Au      9.574310      7.910878      6.761990
  Au      5.690671      7.743693     10.284959
  Au      8.688665      9.789555      8.879050
  Au      6.552581      5.341138      9.075806
  Fe      7.333687      7.680562      8.143683
15
Coordinates from ORCA-job pbe E -3165.061565874603
  Au      7.735543     10.022866      6.319421
  Au      6.715770     10.102600      3.792724
  Au      5.351818      6.255974      5.130611
  Au      7.703248      7.685037      4.668221
  Au      4.754154      7.098259      7.727300
  Au      5.137529      8.968476      5.747778
  Au      5.775157      9.808277      8.357302
  Au      9.294985      5.924283      8.763739
  Au      7.711343      5.615566      6.479789
  Au      8.453507      7.754682     10.686904
  Au      9.572584      7.908801      6.762812
  Au      5.694325      7.738341     10.287625
  Au      8.688295      9.791047      8.876783
  Au      6.547619      5.336386      9.068330
  Fe      7.335073      7.678776      8.150139
15
Coordinates from ORCA-job pbe E -3165.061573474632
  Au      7.735085     10.021294      6.319500
  Au      6.714850     10.100979      3.792222
  Au      5.352767      6.258501      5.129528
  Au      7.704975      7.684621      4.663895
  Au      4.755782      7.101038      7.726626
  Au      5.134485      8.970960      5.746193
  Au      5.773124      9.805337      8.357005
  Au      9.293715      5.923938      8.767544
  Au      7.712303      5.618976      6.479789
  Au      8.456457      7.758616     10.689753
  Au      9.570880      7.905523      6.761640
  Au      5.696423      7.735488     10.289897
  Au      8.688528      9.791854      8.875865
  Au      6.545315      5.334311      9.065108
  Fe      7.336263      7.677935      8.154911
15
Coordinates from ORCA-job pbe E -3165.061577694667
  Au      7.735625     10.021001      6.320655
  Au      6.714205     10.099642      3.793133
  Au      5.353098      6.261140      5.126060
  Au      7.706315      7.684291      4.661576
  Au      4.758137      7.100000      7.725146
  Au      5.132316      8.972509      5.745763
  Au      5.770792      9.803221      8.356111
  Au      9.294783      5.924236      8.768414
  Au      7.710105      5.620544      6.480858
  Au      8.456922      7.759178     10.690639
  Au      9.569718      7.902554      6.759605
  Au      5.696273      7.735921     10.290891
  Au      8.689304      9.792140      8.876154
  Au      6.546088      5.334831      9.066909
  Fe      7.337272      7.678162      8.157562
